<?xml version="1.0" encoding="UTF-8"?>

<!-- generated on 2024-01-09 14:45:14.142784 by randomTrips.py v1_19_0+0000-baa66a0f364
<configuration>
    <net-file value="Miami_Test8_800V_IDM_warningcollect.net.xml"/>
    <additional-files value="vType_badr.add.xml"/>
    <output-trip-file value="Slow_trips.xml"/>
    <route-file value="800v_Slow_routes.rou.xml"/>
    <trip-attributes value="type=&quot;Slow&quot;"/>
    <end value="3000"/>
    <min-distance.fringe value="500.0"/>
    <max-distance value="5000.0"/>
    <period value="4.0"/>
</configuration>
-->

<routes xmlns:xsi="http://www.w3.org/2001/XMLSchema-instance" xsi:noNamespaceSchemaLocation="http://sumo.dlr.de/xsd/routes_file.xsd">
    <trip id="0" depart="0.00" from="11154420#0" to="-1080284747" type="Slow"/>
    <trip id="1" depart="4.00" from="-190525155#2" to="-11168098#2" type="Slow"/>
    <trip id="2" depart="8.00" from="159249478#4" to="11167106#1" type="Slow"/>
    <trip id="3" depart="12.00" from="-930577695#3" to="-11115721#12" type="Slow"/>
    <trip id="4" depart="16.00" from="-1086359503#10" to="-11160457#5" type="Slow"/>
    <trip id="5" depart="20.00" from="11158050#1" to="11133644" type="Slow"/>
    <trip id="6" depart="24.00" from="-11168082#2" to="11143980#1" type="Slow"/>
    <trip id="7" depart="28.00" from="198225608#3" to="1124152026#1" type="Slow"/>
    <trip id="8" depart="32.00" from="84829897#5" to="-49239038#1" type="Slow"/>
    <trip id="9" depart="36.00" from="-11133633#1" to="-11133905#4" type="Slow"/>
    <trip id="10" depart="40.00" from="47472238#1" to="11147305#3" type="Slow"/>
    <trip id="11" depart="44.00" from="199543161#3" to="135310823#5" type="Slow"/>
    <trip id="12" depart="48.00" from="11132230#4" to="86097744#6" type="Slow"/>
    <trip id="13" depart="52.00" from="39091091#2-AddedOnRampEdge" to="11151055#9" type="Slow"/>
    <trip id="14" depart="56.00" from="503666517#1" to="11142520#1" type="Slow"/>
    <trip id="15" depart="60.00" from="-11169121#1" to="-190545254#2" type="Slow"/>
    <trip id="16" depart="64.00" from="-11137173#0" to="-190532676#1" type="Slow"/>
    <trip id="17" depart="68.00" from="11153275#5" to="-671751823#11" type="Slow"/>
    <trip id="18" depart="72.00" from="-684958157#3" to="-11163291#2" type="Slow"/>
    <trip id="19" depart="76.00" from="11157063#0" to="11148216#5" type="Slow"/>
    <trip id="20" depart="80.00" from="-11151690#5" to="135310790#6" type="Slow"/>
    <trip id="21" depart="84.00" from="-11151055#8" to="-788353103#2" type="Slow"/>
    <trip id="22" depart="88.00" from="915129498#0" to="11155161#4" type="Slow"/>
    <trip id="23" depart="92.00" from="11138157#4" to="11169112#0" type="Slow"/>
    <trip id="24" depart="96.00" from="445305013#1" to="190680571" type="Slow"/>
    <trip id="25" depart="100.00" from="-11169157#1" to="-11115759#2" type="Slow"/>
    <trip id="26" depart="104.00" from="-197933276#4" to="-190525030#1" type="Slow"/>
    <trip id="27" depart="108.00" from="-11163858#10" to="83067383#1" type="Slow"/>
    <trip id="28" depart="112.00" from="534729142#2" to="-195485140#2" type="Slow"/>
    <trip id="29" depart="116.00" from="11160457#2" to="-83067399" type="Slow"/>
    <trip id="30" depart="120.00" from="757253374#0" to="1055333437#2" type="Slow"/>
    <trip id="31" depart="124.00" from="-167158233#0" to="-1147831884" type="Slow"/>
    <trip id="32" depart="128.00" from="11143339#2" to="647043555#1" type="Slow"/>
    <trip id="33" depart="132.00" from="-83197733#2" to="-11165838#4" type="Slow"/>
    <trip id="34" depart="136.00" from="977105633" to="11121862#0" type="Slow"/>
    <trip id="35" depart="140.00" from="-11133012#2" to="-11119123#12" type="Slow"/>
    <trip id="36" depart="144.00" from="-11139198#0" to="11151691#3" type="Slow"/>
    <trip id="37" depart="148.00" from="190867846#4" to="-930577696#0" type="Slow"/>
    <trip id="38" depart="152.00" from="-11123828#6" to="-821268537#3" type="Slow"/>
    <trip id="39" depart="156.00" from="966449543#3" to="11130127#4" type="Slow"/>
    <trip id="40" depart="160.00" from="860909991" to="503666512" type="Slow"/>
    <trip id="41" depart="164.00" from="-104946908#3" to="134407856#6" type="Slow"/>
    <trip id="42" depart="168.00" from="11168105#4" to="11132280#1" type="Slow"/>
    <trip id="43" depart="172.00" from="-11139459#2" to="1029259633#0" type="Slow"/>
    <trip id="44" depart="176.00" from="105108040#1" to="84829884#13" type="Slow"/>
    <trip id="45" depart="180.00" from="11119898#3" to="-11153240#8" type="Slow"/>
    <trip id="46" depart="184.00" from="741043857#0" to="534491413#2" type="Slow"/>
    <trip id="47" depart="188.00" from="-190680604#1" to="11155094#0" type="Slow"/>
    <trip id="48" depart="192.00" from="11147884#0" to="-11147555#2" type="Slow"/>
    <trip id="49" depart="196.00" from="190545232#27" to="11132822#3" type="Slow"/>
    <trip id="50" depart="200.00" from="190680623" to="11130143#4" type="Slow"/>
    <trip id="51" depart="204.00" from="-1011118521#13" to="-343709681#2" type="Slow"/>
    <trip id="52" depart="208.00" from="-105108035#2" to="82541629" type="Slow"/>
    <trip id="53" depart="212.00" from="535280685" to="398217708" type="Slow"/>
    <trip id="54" depart="216.00" from="534872474#7" to="83150158" type="Slow"/>
    <trip id="55" depart="220.00" from="-11125843#4" to="190545232#15" type="Slow"/>
    <trip id="56" depart="224.00" from="1111266788#0" to="11135965" type="Slow"/>
    <trip id="57" depart="228.00" from="-167158233#10" to="534491799#4" type="Slow"/>
    <trip id="58" depart="232.00" from="-930577696#16" to="-11163858#1" type="Slow"/>
    <trip id="59" depart="236.00" from="11132820#0" to="135310823#8" type="Slow"/>
    <trip id="60" depart="240.00" from="1042128065" to="11124888#5" type="Slow"/>
    <trip id="61" depart="244.00" from="-11141945#12" to="-11168225#0" type="Slow"/>
    <trip id="62" depart="248.00" from="-49239040#2" to="11143964#5" type="Slow"/>
    <trip id="63" depart="252.00" from="-11169456#2" to="-11167066#1" type="Slow"/>
    <trip id="64" depart="256.00" from="-11127363#6" to="11153183#3" type="Slow"/>
    <trip id="65" depart="260.00" from="49239038#7" to="-11127365#1" type="Slow"/>
    <trip id="66" depart="264.00" from="-1126966818" to="11163859#1" type="Slow"/>
    <trip id="67" depart="268.00" from="82541904" to="11141070" type="Slow"/>
    <trip id="68" depart="272.00" from="11106312#1" to="190867806#1" type="Slow"/>
    <trip id="69" depart="276.00" from="199543187" to="-11156436#10" type="Slow"/>
    <trip id="70" depart="280.00" from="-11134559#1" to="1011526412#3" type="Slow"/>
    <trip id="71" depart="284.00" from="-930577696#7" to="1089772274" type="Slow"/>
    <trip id="72" depart="288.00" from="134544935" to="11164472#0" type="Slow"/>
    <trip id="73" depart="292.00" from="905302125#3" to="-11135839#6" type="Slow"/>
    <trip id="74" depart="296.00" from="503666517#1" to="-124955247#6" type="Slow"/>
    <trip id="75" depart="300.00" from="-930577695#2" to="-190532694#10" type="Slow"/>
    <trip id="76" depart="304.00" from="-125004806#6" to="810360135" type="Slow"/>
    <trip id="77" depart="308.00" from="104757902#8" to="514520780#3" type="Slow"/>
    <trip id="78" depart="312.00" from="11135955" to="-11119784" type="Slow"/>
    <trip id="79" depart="316.00" from="997122191" to="424065781#0" type="Slow"/>
    <trip id="80" depart="320.00" from="-834176302" to="-11121847#5" type="Slow"/>
    <trip id="81" depart="324.00" from="-788353103#13" to="905302126#8" type="Slow"/>
    <trip id="82" depart="328.00" from="-167158233#14" to="190867805#0" type="Slow"/>
    <trip id="83" depart="332.00" from="1051889480#0" to="-930577696#4" type="Slow"/>
    <trip id="84" depart="336.00" from="84829897#6" to="937000429#7" type="Slow"/>
    <trip id="85" depart="340.00" from="11137905#1" to="128709046#2" type="Slow"/>
    <trip id="86" depart="344.00" from="-11148216#3" to="-190675518#0" type="Slow"/>
    <trip id="87" depart="348.00" from="856214061#0" to="11142622#4" type="Slow"/>
    <trip id="88" depart="352.00" from="11133012#0" to="190525145#8" type="Slow"/>
    <trip id="89" depart="356.00" from="11120025#2" to="484587325#0" type="Slow"/>
    <trip id="90" depart="360.00" from="-11148911#3" to="855922552#1" type="Slow"/>
    <trip id="91" depart="364.00" from="-11130806#1" to="-11155166#0" type="Slow"/>
    <trip id="92" depart="368.00" from="-1124152020#0" to="-11141854#6" type="Slow"/>
    <trip id="93" depart="372.00" from="607359239#5" to="-1147831881#5" type="Slow"/>
    <trip id="94" depart="376.00" from="11144916#1" to="11151063#6" type="Slow"/>
    <trip id="95" depart="380.00" from="-87659201#5" to="11143337#9" type="Slow"/>
    <trip id="96" depart="384.00" from="11127740#3" to="82541672#36" type="Slow"/>
    <trip id="97" depart="388.00" from="-1130613349#2" to="-83069278#1" type="Slow"/>
    <trip id="98" depart="392.00" from="-197933289#12" to="190532642#2" type="Slow"/>
    <trip id="99" depart="396.00" from="-11127723#5" to="1053851205#1" type="Slow"/>
    <trip id="100" depart="400.00" from="978728818#3" to="966449543#5" type="Slow"/>
    <trip id="101" depart="404.00" from="-11127741#2" to="-11163891#1" type="Slow"/>
    <trip id="102" depart="408.00" from="-167158233#14" to="82541672#13" type="Slow"/>
    <trip id="103" depart="412.00" from="535323895#2" to="535301567#2" type="Slow"/>
    <trip id="104" depart="416.00" from="-684958156" to="-11148666#2" type="Slow"/>
    <trip id="105" depart="420.00" from="398334266#1" to="1144608292#0" type="Slow"/>
    <trip id="106" depart="424.00" from="11148615#0" to="905794235#1" type="Slow"/>
    <trip id="107" depart="428.00" from="11162997#10" to="83041284#0" type="Slow"/>
    <trip id="108" depart="432.00" from="-11139175#10" to="11137173#8" type="Slow"/>
    <trip id="109" depart="436.00" from="-190525143#0" to="11147550#11" type="Slow"/>
    <trip id="110" depart="440.00" from="127683449" to="-11161674#0" type="Slow"/>
    <trip id="111" depart="444.00" from="11153240#25" to="-135335324#1" type="Slow"/>
    <trip id="112" depart="448.00" from="44659165#2" to="-11133357#3" type="Slow"/>
    <trip id="113" depart="452.00" from="-930577696#6" to="-190525156#7" type="Slow"/>
    <trip id="114" depart="456.00" from="11153888#0" to="-135310823#6" type="Slow"/>
    <trip id="115" depart="460.00" from="190166582#4" to="11137076#1" type="Slow"/>
    <trip id="116" depart="464.00" from="-977109048#3" to="-104757902#0" type="Slow"/>
    <trip id="117" depart="468.00" from="680707619" to="11133726#1" type="Slow"/>
    <trip id="118" depart="472.00" from="419506851" to="11143333#3" type="Slow"/>
    <trip id="119" depart="476.00" from="-11147118#1" to="-11142625#6" type="Slow"/>
    <trip id="120" depart="480.00" from="-190871900#2" to="656106574#12" type="Slow"/>
    <trip id="121" depart="484.00" from="195485120#0" to="49239062#1" type="Slow"/>
    <trip id="122" depart="488.00" from="656106574#11" to="-11163693#8" type="Slow"/>
    <trip id="123" depart="492.00" from="-125004806#3" to="-11137890#0" type="Slow"/>
    <trip id="124" depart="496.00" from="190693565#4" to="571815814#1" type="Slow"/>
    <trip id="125" depart="500.00" from="-849679859#9" to="11151598#13" type="Slow"/>
    <trip id="126" depart="504.00" from="-11148216#0" to="82541653#1" type="Slow"/>
    <trip id="127" depart="508.00" from="519224273#5" to="86662018#1" type="Slow"/>
    <trip id="128" depart="512.00" from="-1067759915" to="163069951#6" type="Slow"/>
    <trip id="129" depart="516.00" from="-465063214#1" to="82541663" type="Slow"/>
    <trip id="130" depart="520.00" from="285325240#6" to="-167158233#6" type="Slow"/>
    <trip id="131" depart="524.00" from="190867819#0" to="-11139175#17" type="Slow"/>
    <trip id="132" depart="528.00" from="534491415#2" to="49239038#4" type="Slow"/>
    <trip id="133" depart="532.00" from="-11168105#5" to="343709669#3" type="Slow"/>
    <trip id="134" depart="536.00" from="-1056729979#12" to="-11157555#4" type="Slow"/>
    <trip id="135" depart="540.00" from="856200959#7" to="-190532694#6" type="Slow"/>
    <trip id="136" depart="544.00" from="11155161#0" to="-83197733#6" type="Slow"/>
    <trip id="137" depart="548.00" from="87573114#10" to="11132248#0" type="Slow"/>
    <trip id="138" depart="552.00" from="83041284#13" to="-11139771#11" type="Slow"/>
    <trip id="139" depart="556.00" from="860909985#1" to="-11153240#7" type="Slow"/>
    <trip id="140" depart="560.00" from="855933743#0" to="-163069951#7" type="Slow"/>
    <trip id="141" depart="564.00" from="-11139178#0" to="1024254786#1" type="Slow"/>
    <trip id="142" depart="568.00" from="134544930#4" to="-195485129#3" type="Slow"/>
    <trip id="143" depart="572.00" from="11147550#13" to="11123039#6" type="Slow"/>
    <trip id="144" depart="576.00" from="-82541664#1" to="11142514#7" type="Slow"/>
    <trip id="145" depart="580.00" from="-1011526412#1" to="821268537#1" type="Slow"/>
    <trip id="146" depart="584.00" from="190525061#1" to="11164230#0" type="Slow"/>
    <trip id="147" depart="588.00" from="11163153" to="-426327283" type="Slow"/>
    <trip id="148" depart="592.00" from="128709046#14" to="-190693565#8" type="Slow"/>
    <trip id="149" depart="596.00" from="-192598299#4" to="-855933742" type="Slow"/>
    <trip id="150" depart="600.00" from="-84829884#19" to="-190659910#4" type="Slow"/>
    <trip id="151" depart="604.00" from="-11142631#0" to="-911635107#1" type="Slow"/>
    <trip id="152" depart="608.00" from="83041284#7" to="11167106#8" type="Slow"/>
    <trip id="153" depart="612.00" from="680631529#0" to="11150414" type="Slow"/>
    <trip id="154" depart="616.00" from="-1011118521#11" to="-190545232#33" type="Slow"/>
    <trip id="155" depart="620.00" from="1011118521#13" to="11142625#3" type="Slow"/>
    <trip id="156" depart="624.00" from="104757901#6" to="-11163896#1" type="Slow"/>
    <trip id="157" depart="628.00" from="11107283#1" to="671751823#21" type="Slow"/>
    <trip id="158" depart="632.00" from="192752072#0" to="-11151603#21" type="Slow"/>
    <trip id="159" depart="636.00" from="-11132230#4" to="11123946#3" type="Slow"/>
    <trip id="160" depart="640.00" from="345992164" to="190525170#0" type="Slow"/>
    <trip id="161" depart="644.00" from="11164449#2" to="-11168107#5" type="Slow"/>
    <trip id="162" depart="648.00" from="-11161284#2" to="-1056729979#8" type="Slow"/>
    <trip id="163" depart="652.00" from="-1147831881#3" to="1111266788#0" type="Slow"/>
    <trip id="164" depart="656.00" from="11118950#1" to="-1144608302" type="Slow"/>
    <trip id="165" depart="660.00" from="11160502#0" to="-1044047787#0" type="Slow"/>
    <trip id="166" depart="664.00" from="-11138663#7" to="-931175010#9" type="Slow"/>
    <trip id="167" depart="668.00" from="-11153240#12" to="84829906#0" type="Slow"/>
    <trip id="168" depart="672.00" from="-125004804" to="47472511" type="Slow"/>
    <trip id="169" depart="676.00" from="1053851194" to="195485140#4" type="Slow"/>
    <trip id="170" depart="680.00" from="11163693#8" to="907244829#1" type="Slow"/>
    <trip id="171" depart="684.00" from="128709046#0" to="11120983#1" type="Slow"/>
    <trip id="172" depart="688.00" from="39095339#1" to="11134265" type="Slow"/>
    <trip id="173" depart="692.00" from="11111163#2" to="-134544915#15" type="Slow"/>
    <trip id="174" depart="696.00" from="-124955247#4" to="11154420#0" type="Slow"/>
    <trip id="175" depart="700.00" from="11151682#1" to="-190525145#9" type="Slow"/>
    <trip id="176" depart="704.00" from="-11129678#0" to="-190545232#19" type="Slow"/>
    <trip id="177" depart="708.00" from="-190525142#1" to="-230520829#1" type="Slow"/>
    <trip id="178" depart="712.00" from="11132822#8" to="-11144143#6" type="Slow"/>
    <trip id="179" depart="716.00" from="-11169572#3" to="1121164599" type="Slow"/>
    <trip id="180" depart="720.00" from="1144608300#1" to="-11123835#3" type="Slow"/>
    <trip id="181" depart="724.00" from="-855922552#18" to="11133020#8" type="Slow"/>
    <trip id="182" depart="728.00" from="-860909995#0" to="-11162997#9" type="Slow"/>
    <trip id="183" depart="732.00" from="-905302125#3" to="680707627#0" type="Slow"/>
    <trip id="184" depart="736.00" from="11143337#5" to="1121632057#1" type="Slow"/>
    <trip id="185" depart="740.00" from="-818557355#1" to="-1046874693#2" type="Slow"/>
    <trip id="186" depart="744.00" from="-545275803#6" to="190532694#13" type="Slow"/>
    <trip id="187" depart="748.00" from="-87659201#2" to="190525145#12" type="Slow"/>
    <trip id="188" depart="752.00" from="11133729#1" to="11147304#7" type="Slow"/>
    <trip id="189" depart="756.00" from="-11168082#3" to="-11166013" type="Slow"/>
    <trip id="190" depart="760.00" from="1033232971" to="-11115159" type="Slow"/>
    <trip id="191" depart="764.00" from="-49239037#6" to="11168098#2" type="Slow"/>
    <trip id="192" depart="768.00" from="-84829894#1" to="-11151063#10" type="Slow"/>
    <trip id="193" depart="772.00" from="1089772275#1" to="-11142625#8" type="Slow"/>
    <trip id="194" depart="776.00" from="11151598#11" to="-1089772294" type="Slow"/>
    <trip id="195" depart="780.00" from="-83067376#1" to="11139525#1" type="Slow"/>
    <trip id="196" depart="784.00" from="-1086359503#9" to="11156320#2" type="Slow"/>
    <trip id="197" depart="788.00" from="-11143972#5" to="1056729979#6" type="Slow"/>
    <trip id="198" depart="792.00" from="-11119675#1" to="-788353103#14" type="Slow"/>
    <trip id="199" depart="796.00" from="-11163858#7" to="-387359098#0" type="Slow"/>
    <trip id="200" depart="800.00" from="190545232#11" to="-788353103#15" type="Slow"/>
    <trip id="201" depart="804.00" from="190525157#5" to="398329015" type="Slow"/>
    <trip id="202" depart="808.00" from="-128575956#0" to="-11130855#2" type="Slow"/>
    <trip id="203" depart="812.00" from="-105108035#1" to="11132822#4" type="Slow"/>
    <trip id="204" depart="816.00" from="998351552#3" to="-535281613#2" type="Slow"/>
    <trip id="205" depart="820.00" from="11158050#6" to="190693568#7" type="Slow"/>
    <trip id="206" depart="824.00" from="11159095" to="190532702#0" type="Slow"/>
    <trip id="207" depart="828.00" from="83197738#1" to="-11160502#1" type="Slow"/>
    <trip id="208" depart="832.00" from="-1051889479#1" to="-11147550#7" type="Slow"/>
    <trip id="209" depart="836.00" from="11139345#3" to="-11164877#1" type="Slow"/>
    <trip id="210" depart="840.00" from="1124152023#1" to="190557188#3" type="Slow"/>
    <trip id="211" depart="844.00" from="-11151603#15" to="11147881#3" type="Slow"/>
    <trip id="212" depart="848.00" from="190525143#1" to="-11139767#21" type="Slow"/>
    <trip id="213" depart="852.00" from="-11139175#6" to="-1082957692#5" type="Slow"/>
    <trip id="214" depart="856.00" from="-195485129#13" to="11167106#9" type="Slow"/>
    <trip id="215" depart="860.00" from="11169569#0" to="11151691#1" type="Slow"/>
    <trip id="216" depart="864.00" from="-11137366#2" to="190659947#1" type="Slow"/>
    <trip id="217" depart="868.00" from="190693679" to="-534491818#2" type="Slow"/>
    <trip id="218" depart="872.00" from="-994835932#0" to="-684958157#5" type="Slow"/>
    <trip id="219" depart="876.00" from="11121020#3" to="-519223751#1" type="Slow"/>
    <trip id="220" depart="880.00" from="-11138535#2" to="855922552#1" type="Slow"/>
    <trip id="221" depart="884.00" from="11153275#4" to="39091091#1" type="Slow"/>
    <trip id="222" depart="888.00" from="1144608308#0" to="1033232971" type="Slow"/>
    <trip id="223" depart="892.00" from="135335285#3" to="856193613#9" type="Slow"/>
    <trip id="224" depart="896.00" from="11132808#11" to="11116615#8" type="Slow"/>
    <trip id="225" depart="900.00" from="1033232970#0" to="135310839#8" type="Slow"/>
    <trip id="226" depart="904.00" from="-190525128#3" to="47472617#0" type="Slow"/>
    <trip id="227" depart="908.00" from="539456617" to="-1144608300#1" type="Slow"/>
    <trip id="228" depart="912.00" from="-788353103#13" to="-11115148#1" type="Slow"/>
    <trip id="229" depart="916.00" from="-518452467#3" to="535323897" type="Slow"/>
    <trip id="230" depart="920.00" from="1125373095#0" to="-190525156#1" type="Slow"/>
    <trip id="231" depart="924.00" from="-104757902#5" to="83197679#1" type="Slow"/>
    <trip id="232" depart="928.00" from="-11132252#2" to="134407852#2" type="Slow"/>
    <trip id="233" depart="932.00" from="11117489#16" to="190545192#3" type="Slow"/>
    <trip id="234" depart="936.00" from="11169569#0" to="11156573#0" type="Slow"/>
    <trip id="235" depart="940.00" from="11118603#0" to="190871897#2" type="Slow"/>
    <trip id="236" depart="944.00" from="-11133633#13" to="-11167244#1" type="Slow"/>
    <trip id="237" depart="948.00" from="11142631#2" to="11107635" type="Slow"/>
    <trip id="238" depart="952.00" from="11130605#2" to="-936999947#0" type="Slow"/>
    <trip id="239" depart="956.00" from="190525130#8" to="-429655860" type="Slow"/>
    <trip id="240" depart="960.00" from="-125004815#5" to="-11141878#2" type="Slow"/>
    <trip id="241" depart="964.00" from="11132015" to="190545232#33" type="Slow"/>
    <trip id="242" depart="968.00" from="11116793#0" to="134544915#6" type="Slow"/>
    <trip id="243" depart="972.00" from="-11153464#1" to="-104946911#5" type="Slow"/>
    <trip id="244" depart="976.00" from="11131305" to="-190525145#6" type="Slow"/>
    <trip id="245" depart="980.00" from="1089772296#1" to="104749593#6" type="Slow"/>
    <trip id="246" depart="984.00" from="83067365#1" to="11115704#3" type="Slow"/>
    <trip id="247" depart="988.00" from="372780230" to="-832261425#4" type="Slow"/>
    <trip id="248" depart="992.00" from="-11120025#1" to="-11147304#1" type="Slow"/>
    <trip id="249" depart="996.00" from="11139180#0" to="-190867820#3" type="Slow"/>
    <trip id="250" depart="1000.00" from="931175010#2" to="-11141025#0" type="Slow"/>
    <trip id="251" depart="1004.00" from="190545232#51" to="11147555#5" type="Slow"/>
    <trip id="252" depart="1008.00" from="190867843#3" to="-11168527#1" type="Slow"/>
    <trip id="253" depart="1012.00" from="11127740#0" to="105108001#0" type="Slow"/>
    <trip id="254" depart="1016.00" from="104757902#3" to="49239059#5" type="Slow"/>
    <trip id="255" depart="1020.00" from="930577695#0" to="-190867823#9" type="Slow"/>
    <trip id="256" depart="1024.00" from="11151063#6" to="11148420#1" type="Slow"/>
    <trip id="257" depart="1028.00" from="-11163288#3" to="-11163853#1" type="Slow"/>
    <trip id="258" depart="1032.00" from="11161672#2" to="-11148426#2" type="Slow"/>
    <trip id="259" depart="1036.00" from="-11152927#1" to="-11128661#1" type="Slow"/>
    <trip id="260" depart="1040.00" from="-1011526412#9" to="105108001#0" type="Slow"/>
    <trip id="261" depart="1044.00" from="11144870#0" to="-190557193#15" type="Slow"/>
    <trip id="262" depart="1048.00" from="-11170311#1" to="1147831881#1" type="Slow"/>
    <trip id="263" depart="1052.00" from="1130613357" to="1051791338" type="Slow"/>
    <trip id="264" depart="1056.00" from="11169121#2" to="815492619#4" type="Slow"/>
    <trip id="265" depart="1060.00" from="190867820#3" to="11151683#0" type="Slow"/>
    <trip id="266" depart="1064.00" from="11162204" to="82541672#2" type="Slow"/>
    <trip id="267" depart="1068.00" from="-931175010#3" to="11133633#5" type="Slow"/>
    <trip id="268" depart="1072.00" from="11156573#0" to="690064098" type="Slow"/>
    <trip id="269" depart="1076.00" from="39033407" to="-11127715#4" type="Slow"/>
    <trip id="270" depart="1080.00" from="-11151598#16" to="-190867844#3" type="Slow"/>
    <trip id="271" depart="1084.00" from="190525145#6" to="11140281#3" type="Slow"/>
    <trip id="272" depart="1088.00" from="11169446#2" to="1127425849#0" type="Slow"/>
    <trip id="273" depart="1092.00" from="83067378#8" to="11119898#2" type="Slow"/>
    <trip id="274" depart="1096.00" from="11118612#9" to="-11130806#7" type="Slow"/>
    <trip id="275" depart="1100.00" from="-11117489#16" to="1011729120#12" type="Slow"/>
    <trip id="276" depart="1104.00" from="-310456750#0" to="-125004804" type="Slow"/>
    <trip id="277" depart="1108.00" from="-11133020#12" to="855922552#23" type="Slow"/>
    <trip id="278" depart="1112.00" from="832261424#0" to="997143336" type="Slow"/>
    <trip id="279" depart="1116.00" from="11164395#0" to="-190525129#1" type="Slow"/>
    <trip id="280" depart="1120.00" from="-11117489#3" to="190532709#8" type="Slow"/>
    <trip id="281" depart="1124.00" from="11103229#1" to="11159630#0" type="Slow"/>
    <trip id="282" depart="1128.00" from="758329870#9" to="-11153888#5" type="Slow"/>
    <trip id="283" depart="1132.00" from="11118608#8" to="-11133020#12" type="Slow"/>
    <trip id="284" depart="1136.00" from="-534772436#3" to="-47472611#10" type="Slow"/>
    <trip id="285" depart="1140.00" from="11163858#8" to="49239038#11" type="Slow"/>
    <trip id="286" depart="1144.00" from="-42671238#1" to="1120111388#0" type="Slow"/>
    <trip id="287" depart="1148.00" from="-190545254#13" to="83070608#1" type="Slow"/>
    <trip id="288" depart="1152.00" from="287921150#4" to="11135968#1" type="Slow"/>
    <trip id="289" depart="1156.00" from="1051889475#3" to="-195485140#0" type="Slow"/>
    <trip id="290" depart="1160.00" from="-314459409#2" to="856217106" type="Slow"/>
    <trip id="291" depart="1164.00" from="-84829893#1" to="11123835#5" type="Slow"/>
    <trip id="292" depart="1168.00" from="190532707" to="11151683#4" type="Slow"/>
    <trip id="293" depart="1172.00" from="190545213#0" to="-11161672#4" type="Slow"/>
    <trip id="294" depart="1176.00" from="11135505#1" to="82541607#0" type="Slow"/>
    <trip id="295" depart="1180.00" from="1042128065" to="1124152026#3" type="Slow"/>
    <trip id="296" depart="1184.00" from="-11141945#2" to="86097744#7" type="Slow"/>
    <trip id="297" depart="1188.00" from="11147883" to="-1126966817" type="Slow"/>
    <trip id="298" depart="1192.00" from="-11150295#6" to="11136498#5" type="Slow"/>
    <trip id="299" depart="1196.00" from="930577696#5" to="741593625#0" type="Slow"/>
    <trip id="300" depart="1200.00" from="125004815#6" to="11121854#0" type="Slow"/>
    <trip id="301" depart="1204.00" from="-190525145#6" to="420073411" type="Slow"/>
    <trip id="302" depart="1208.00" from="87553375" to="-1144608300#0" type="Slow"/>
    <trip id="303" depart="1212.00" from="11136498#0" to="-82541616#3" type="Slow"/>
    <trip id="304" depart="1216.00" from="803497250" to="11121847#1" type="Slow"/>
    <trip id="305" depart="1220.00" from="535281609#1" to="521860154" type="Slow"/>
    <trip id="306" depart="1224.00" from="11121190#9" to="352827999#0" type="Slow"/>
    <trip id="307" depart="1228.00" from="-190545194#0" to="-190680583#3" type="Slow"/>
    <trip id="308" depart="1232.00" from="11143393#4" to="994835932#1" type="Slow"/>
    <trip id="309" depart="1236.00" from="11118252#0" to="-11147067#9" type="Slow"/>
    <trip id="310" depart="1240.00" from="11132808#5" to="-534454622#3" type="Slow"/>
    <trip id="311" depart="1244.00" from="11136719#1" to="11133628#0" type="Slow"/>
    <trip id="312" depart="1248.00" from="1051889484" to="-287921149#11" type="Slow"/>
    <trip id="313" depart="1252.00" from="-11156402#0" to="1124152022#8" type="Slow"/>
    <trip id="314" depart="1256.00" from="11141034#2" to="-1118222778#5" type="Slow"/>
    <trip id="315" depart="1260.00" from="190675532#0" to="-11118609#9" type="Slow"/>
    <trip id="316" depart="1264.00" from="190525130#1" to="1144608304#1" type="Slow"/>
    <trip id="317" depart="1268.00" from="287326466#1" to="-82541666#4" type="Slow"/>
    <trip id="318" depart="1272.00" from="11162997#13" to="352827999#2" type="Slow"/>
    <trip id="319" depart="1276.00" from="-11117109#1" to="11120016#2" type="Slow"/>
    <trip id="320" depart="1280.00" from="11143980#4" to="534454622#22" type="Slow"/>
    <trip id="321" depart="1284.00" from="534491818#3" to="104749593#4" type="Slow"/>
    <trip id="322" depart="1288.00" from="11129225#1" to="1053851196#6" type="Slow"/>
    <trip id="323" depart="1292.00" from="134407856#8" to="-856193611#3" type="Slow"/>
    <trip id="324" depart="1296.00" from="11160315#1" to="-11147881#6" type="Slow"/>
    <trip id="325" depart="1300.00" from="1089772297" to="856214061#3" type="Slow"/>
    <trip id="326" depart="1304.00" from="-49239059#1" to="1120104668#1" type="Slow"/>
    <trip id="327" depart="1308.00" from="-792940614#2" to="-197933289#12" type="Slow"/>
    <trip id="328" depart="1312.00" from="128709034#1" to="190545215#0" type="Slow"/>
    <trip id="329" depart="1316.00" from="534491415#5" to="-11117099#12" type="Slow"/>
    <trip id="330" depart="1320.00" from="-11125838" to="11153183#3" type="Slow"/>
    <trip id="331" depart="1324.00" from="802786514#1" to="977105632" type="Slow"/>
    <trip id="332" depart="1328.00" from="-11135839#7" to="11153275#0" type="Slow"/>
    <trip id="333" depart="1332.00" from="534491799#0" to="1048571256#0" type="Slow"/>
    <trip id="334" depart="1336.00" from="1119782933" to="680631531#5" type="Slow"/>
    <trip id="335" depart="1340.00" from="-11118970" to="195485120#19" type="Slow"/>
    <trip id="336" depart="1344.00" from="-190659857#1" to="-757253374#4" type="Slow"/>
    <trip id="337" depart="1348.00" from="-11146553#4" to="11130806#4" type="Slow"/>
    <trip id="338" depart="1352.00" from="11139757#4" to="190871892" type="Slow"/>
    <trip id="339" depart="1356.00" from="-11151682#1" to="-11130143#3" type="Slow"/>
    <trip id="340" depart="1360.00" from="534454622#9" to="11151066#0" type="Slow"/>
    <trip id="341" depart="1364.00" from="-1132464654" to="741043860" type="Slow"/>
    <trip id="342" depart="1368.00" from="-11146531#2" to="1056729979#15" type="Slow"/>
    <trip id="343" depart="1372.00" from="-128709046#14" to="-128709046#15" type="Slow"/>
    <trip id="344" depart="1376.00" from="-104757901#6" to="197933289#5" type="Slow"/>