<?xml version="1.0" encoding="UTF-8"?>

<!-- generated on 2024-01-09 14:45:05.075895 by randomTrips.py v1_19_0+0000-baa66a0f364
<configuration>
    <net-file value="Miami_Test8_800V_IDM_warningcollect.net.xml"/>
    <additional-files value="vType_badr.add.xml"/>
    <output-trip-file value="Dang_trips.xml"/>
    <route-file value="800v_Dange_routes.rou.xml"/>
    <trip-attributes value="type=&quot;Dangerous&quot;"/>
    <end value="3000"/>
    <min-distance.fringe value="500.0"/>
    <max-distance value="5000.0"/>
    <period value="4.0"/>
</configuration>
-->

<!-- generated on 2024-01-09 14:45:03 by Eclipse SUMO duarouter Version 1.19.0
<configuration xmlns:xsi="http://www.w3.org/2001/XMLSchema-instance" xsi:noNamespaceSchemaLocation="http://sumo.dlr.de/xsd/duarouterConfiguration.xsd">

    <input>
        <net-file value="Miami_Test8_800V_IDM_warningcollect.net.xml"/>
        <additional-files value="vType_badr.add.xml"/>
        <route-files value="Dang_trips.xml"/>
    </input>

    <output>
        <output-file value="800v_Dange_routes.rou.xml"/>
        <alternatives-output value="NUL"/>
    </output>

    <time>
        <begin value="0"/>
        <end value="3000"/>
    </time>

    <report>
        <no-warnings value="true"/>
        <ignore-errors value="true"/>
        <no-step-log value="true"/>
    </report>

</configuration>
-->

<routes xmlns:xsi="http://www.w3.org/2001/XMLSchema-instance" xsi:noNamespaceSchemaLocation="http://sumo.dlr.de/xsd/routes_file.xsd">
    <vType id="Dangerous" minGap="1.00" maxSpeed="20.00" speedFactor="1.20" color="red" carFollowModel="IDM" accel="4" decel="3" emergencyDecel="10" apparentDecel="3" tau="0.70" stepping="0.5"/>
    <vehicle id="dang0" type="Dangerous" depart="0.00">
        <route edges="11154420#0 11164706#1 11164706#2 856214059#12 856214059#13 856214060#0 856214060#1 856214060#2 856214060#3 856214060#4 856214060#5 1152574792 127683449 83150167#1 190675543#0 190675543#1 83197679#1 86097748#0 86097748#1-AddedOnRampEdge 86097748#1 86097748#1-AddedOffRampEdge 1051889474 -159249478#4 -159249478#3 -159249478#2 -159249478#1 -159249478#0 -534881030 -1060646070 -128709044 -1148220251 -128709046#15 -128709046#14 -128709046#13 -128709046#12 -128709046#11 -128709046#10 125004810#8 125004810#10 125004810#11 1080284747 -1080284747"/>
    </vehicle>
    <vehicle id="dang1" type="Dangerous" depart="4.00">
        <route edges="-190525155#2 -190525155#1 -830167565#2 -830167565#1 -830167565#0 -190525130#19 -190525130#18 -190525130#17 -190525130#16 -190525130#15 -190525130#14 -190525130#13 -190525130#12 -190525130#11 -190525130#10 -190525130#9 -190525130#8 -190525130#7 -190525130#6 -190525130#2 -190525130#1 -190525130#0 -190525135#2 -190525135#1 -83067383#9 -83067383#8 -83067383#6 -83067383#5 -83067383#4 -83067383#3 -83067383#2 -83067383#1 190525149#1 419742965 419742967 419742966 -11116613#6 -11116613#5 -11116613#4 -11123934#1 -11121847#5 -11121847#4 -11121847#3 -11121847#2 -11121847#1 -11121847#0 -1147929830 -11148666#6 -11148666#5 -11148666#4 -11148666#3 -11148666#2 -11168098#4 -11168098#3 -11168098#2"/>
    </vehicle>
    <vehicle id="dang2" type="Dangerous" depart="8.00">
        <route edges="159249478#4 -159249478#4 -159249478#3 -159249478#2 -159249478#1 -159249478#0 -534881030 -1060646070 -128709044 135310839#0 135310839#1 135310839#2 135310839#3 135310839#4 135310839#5 135310839#6 135310839#7 135310839#8 135310839#9 135310839#10 135310839#11 135310839#14 135310839#15 -190867823#11 -190867823#10 -190867823#9 -190867823#8 -190867823#7 -190867823#6 -190867823#5 -190867823#4 -190867823#3 -190867823#2 -190867823#1 -190867823#0 -190867822 -534491799#12 -534491799#11 -534491799#10 -534491799#9 -534491799#8 -534491799#6 -534491799#5 -534491799#4 -534491799#3 -534491799#2 -534491799#1 -534491799#0 -1086359503#12 -1086359503#10 -1086359503#9 -1086359503#7 -1086359503#6 -11167106#4 -11167106#3 -11167106#2 -11167106#1 11167106#1"/>
    </vehicle>
    <vehicle id="dang3" type="Dangerous" depart="12.00">
        <route edges="-930577695#3 930577695#3 930577695#4 930577695#5 930577695#6 930577695#7 930577695#8 930577695#10 930577695#11 930577695#12 930577695#13 930577695#14 930577695#15 930577695#16 190545254#4 190545254#5 190545254#6 190545254#7 190545254#8 190545254#9 190545254#10 190545254#11 190545254#12 190545254#13 190545254#14 190545254#15 190545254#16 190545254#17 190545254#18 195485125#0 195485125#1 195485125#2 195485125#3 43475417 47472249 1002175077-AddedOnRampEdge 1002175077 -190545257#2 -190545257#1 -135335324#5 -135335324#2 -135335324#1 -135335324#0 -11115721#19 -11115721#17 -11115721#16 -11115721#15 -11115721#14 -11115721#13 -11115721#12"/>
    </vehicle>
    <vehicle id="dang4" type="Dangerous" depart="16.00">
        <route edges="-1086359503#10 -1086359503#9 -1086359503#7 -1086359503#6 -1086359503#5 -1086359503#4 -1086359503#2 -1086359503#1 -1086359503#0 -190532708#1 350646237#1 350646237#2 398334266#0 398334266#1 350660456#0 350660456#1 1051791338 84829886 190680594#0 190680594#1 39091091#0 39091091#1 39091091#2-AddedOnRampEdge 39091091#2 190680570-AddedOnRampEdge 190680570 39091062 39091062-AddedOffRampEdge 39089491 1065209076 134544925 190680583#0 190680583#1 190680583#3 534772448 534422155 190532645 905467133 905467135 285325244 905302126#0 905302126#1 905302126#2 905302126#3 905302126#4 424766011 -11160457#6 -11160457#5"/>
    </vehicle>
    <vehicle id="dang5" type="Dangerous" depart="20.00">
        <route edges="11158050#1 -11126772#4 -11126772#3 -11126772#1 -11126772#0 -49238755#1 -49238755#0 11122052 1066986777#2 1066986776#0 11129281#1 11129281#2 11129281#3 11129281#4 11133644"/>
    </vehicle>
    <vehicle id="dang6" type="Dangerous" depart="24.00">
        <route edges="-11168082#2 11159636#4 11159636#5 11148666#6 1147929830 134544915#14 134544915#15 134544915#16 134544915#17 134544915#18 134544915#19 134544915#20 134544915#21 134544915#22 134544915#23 134544915#24 134544915#25 134544915#26 134544915#27 535281613#0 535281613#1 535281613#2 535281793#0 535281793#1 535281605 190675516#0 190675516#2 190675516#3 190675516#4 190675516#5 190532666 190525143#0 190525143#1 764854938#0 764854938#1 190525142#0 190525142#1 190525142#2 190525142#3 190525142#4 190525142#5 190525142#7 190525142#8 190525142#9 1000521230 387359098#0 387359098#1 134544911#0 134544914#0 134544914#1 134544914#2 83070584 84829888#0 84829888#1 84829888#3 84829888#5 84829888#7 84829888#8 977066579#0 11143980#0 11143980#1"/>
    </vehicle>
    <vehicle id="dang7" type="Dangerous" depart="28.00">
        <route edges="198225608#3 198225608#4 198225608#5 -930577695#1 -930577695#0 -930577698 -190532694#13 -190532694#12 -190532694#11 -190532694#10 -190532694#9 -190532694#8 -190532694#7 -190532694#6 -190532694#5 -190532694#4 -190532694#3 -190532694#0 -83067368#2 -83067368#1 -83067368#0 -135310823#8 -135310823#7 -135310823#6 -135310823#5 -135310823#4 -135310823#3 -135310823#2 1053851197 1053851198 -1124152029 -1124152028 -105107999#1 -105107999#0 -1124152027 1124152026#0 1124152026#1"/>
    </vehicle>
    <vehicle id="dang8" type="Dangerous" depart="32.00">
        <route edges="84829897#5 -84829897#5 -84829897#4 -84829897#3 -84829897#2 -84829897#1 -84829897#0 -285325240#0 190532646 534658422#0 534658422#1 534658422#2 534658422#3 -83041270#3 -83041270#2 -83041270#1 -83041270#0 -1124152026#9 -1124152026#8 -1124152026#7 -1124152026#6 -1124152026#5 -1124152026#4 -1124152026#3 -1124152026#2 -1124152026#1 -1124152026#0 -1124152025 -1124152024#1 -1124152024#0 -1124152023#1 -1124152020#1 -1124152020#0 -1124152019#0 -11163852#9 -11163852#8 -11163852#4 -11163852#3 -11163852#2 -11163852#1 -49239038#23 -49239038#22 -49239038#21 -49239038#19 -49239038#17 -49239038#14 -49239038#13 -49239038#12 -49239038#11 -49239038#10 -49239038#9 -49239038#8 -49239038#7 -49239038#6 -49239038#5 -49239038#4 -49239038#2 -49239038#1"/>
    </vehicle>
    <vehicle id="dang9" type="Dangerous" depart="36.00">
        <route edges="-11133633#1 -11133633#0 -11127834#8 -11127834#7 -11127834#6 -11127834#2 -11127834#1 -11127834#0 11117199 617152570#0 617152570#1 617152570#2 617152570#3 617152570#4 190659849#0 190659849#1 190659849#2 -134407856#9 -134407856#8 -134407856#7 -134407856#6 -134407856#4 -134407856#3 -134407856#2 -134407856#0 -190525116#1 -190525116#0 -190545189#6 -190545189#5 -190545189#4 -190545189#1 -190545189#0 -190545190#4 -190545190#3 -190545190#1 -195485120#26 -195485120#25 -195485120#24 -195485120#23 -195485120#22 -195485120#21 -195485120#20 -195485120#19 -195485120#17 -195485120#16 -195485120#14 -195485120#13 -195485120#12 -195485120#11 -195485120#10 -195485120#9 -195485120#8 -195485120#6 -195485120#5 -195485120#3 -195485120#2 -1056729979#18 -1056729979#15 -1056729979#14 -1056729979#13 -1056729979#12 -1056729979#11 -1056729979#10 -1056729979#8 -1056729979#7 -1056729979#6 -1056729979#5 11133357#0 11133357#1 11133357#2 11133357#3 1058615863#1 190545194#1 190545194#2 190545197#1 190545197#2 190545197#3 11155813#0 11155813#1 -11133905#4"/>
    </vehicle>
    <vehicle id="dang10" type="Dangerous" depart="40.00">
        <route edges="47472238#1 398217655 86097751#0 86097751#1 86097751#2 -11162377#8 -11162377#7 11126995#0 11126995#1 11126995#2 11126995#3 275390697#0 275390697#1 47472251#1 47472251#2 86662338#0 86662338#1 906510651 83197740 484695874 47472237 484695878 190675543#0 190675543#1 83197679#1 -190545257#2 -190545257#1 -135335324#5 -135335324#2 -135335324#1 -135335324#0 -11115721#19 -11115721#17 11147305#0 11147305#1 11147305#2 11147305#3"/>
    </vehicle>
    <vehicle id="dang11" type="Dangerous" depart="44.00">
        <route edges="199543161#3 11161593#0 11161593#1 11128337#1 11128337#3 420073416#0 420073416#1 420073415#0 420073415#1 44659509#0 44659509#1 -190659857#3 -190659857#1 -190659857#0 -855933745#1 -855933745#0 -11146912#6 -11146912#5 -11146912#4 -11146912#3 -11146912#2 -11146912#1 -11146912#0 -733886318#1 -733886318#0 -733886319 -424069377 -190659846 -1121165905 -1121165904 -1121165903#1 -1121165903#0 -1121164599 -1121164600#1 -1121164600#0 -1121164601 -343709665 190525061#0 190525061#1 190525061#2 190525061#3 190525061#4 190525061#5 190525061#6 190525061#7 519224276#0 519224273#0 519224273#1 519224273#2 519224273#3 519224273#4 519224273#5 1123835882#0 1123835883#0 11163852#1 11163852#2 11163852#3 11163852#4 11163852#8 11163852#9 1124152019#0 1124152019#1 1124152020#1 1124152023#1 1124152024#0 1124152024#1 1124152025 -83041284#21 1053851196#7 1053851196#8 135310823#2 135310823#3 135310823#4 135310823#5"/>
    </vehicle>
    <vehicle id="dang12" type="Dangerous" depart="48.00">
        <route edges="11132230#4 11132230#8 11132230#10 -190545186#1 -49239037#6 -49239037#5 -49239037#4 -49239037#3 -49239037#2 -49239037#1 -190545190#4 -190545190#3 -190545190#1 -617152586#1 -757253374#4 -757253374#3 -757253374#2 -757253374#1 -757253374#0 -757253373 -617152589 -617152588 -11148909#3 -11148909#1 535301567#1 535301567#2 535301567#3 535301567#5 535301567#6 535301567#7 535301567#8 518452466 518452467#1 518452467#3 518452467#4 518452467#6 518452467#7 518452467#8 518452467#9 518452467#11 518452467#12 519224273#0 519224273#1 519224273#2 519224273#3 519224273#4 519224273#5 1123835882#0 1123835883#0 11163852#1 11163852#2 11163852#3 11163852#4 11163852#8 11163852#9 1124152019#0 1124152019#1 1124152020#1 1124152023#1 1124152024#0 1124152024#1 1124152025 1124152026#0 1124152026#1 1124152026#2 1124152026#3 1124152026#4 1124152026#5 1124152026#6 1124152026#7 1124152026#8 1124152026#9 -195485143#5 -195485143#4 -195485143#2 -195485143#0 -190532749 -679910677 -86097733#1 -86097733#0 86097744#0 86097744#1 86097744#3 86097744#5 86097744#6"/>
    </vehicle>
    <vehicle id="dang13" type="Dangerous" depart="52.00">
        <route edges="39091091#2-AddedOnRampEdge 39091091#2 190680570-AddedOnRampEdge 190680570 39091062 39091062-AddedOffRampEdge 39089491 1065209076 134544925 534658422#0 534658422#1 534658422#2 534658422#3 -83041270#3 -83041270#2 -83041270#1 -83041270#0 -1124152026#9 -1124152026#8 -1124152026#7 -1124152026#6 -1124152026#5 -1124152026#4 -1124152026#3 -1124152026#2 -1124152026#1 -1124152026#0 -83041284#21 -83041284#20 -83041284#19 -83041284#18 -83041284#17 -83041284#16 -83041284#15 -83041284#14 -83041284#13 -83041284#12 -11151055#12 -11151055#11 -11151055#10 -11151055#9 11151055#9"/>
    </vehicle>
    <vehicle id="dang14" type="Dangerous" depart="56.00">
        <route edges="503666517#1 738523412#1 11120097#0 11120097#1 738523408#1 738523408#2 738523408#3 738523408#4 -738523408#4 -738523408#3 -738523408#2 -738523408#1 -738523408#0 -11120097#0 -738523412#1 -738523412#0 856193618 1125340878#0 -763289593#2 -763289593#1 -763289593#0 -763289592 -190532677#1 -190532677#0 190525148#0 190525148#1 190525148#2 190525148#3 856193612#1 11157058#0 11157058#1 11142520#1"/>
    </vehicle>
    <vehicle id="dang15" type="Dangerous" depart="60.00">
        <route edges="-11169121#1 -11169121#0 -285325240#3 -285325240#2 -285325240#1 -285325240#0 134544930#0 134544930#1 134544930#2 134544930#3 134544930#4 134544929#0 134544929#1 134544929#2 -134544914#2 -134544914#1 -134544914#0 -134544911#1 -387359098#2 -387359098#0 -1000521230 -190525142#9 -190525142#8 -190525142#7 -190525142#5 -190525142#4 -190525142#3 -190525142#2 -190525142#1 -190525142#0 -764854938#1 -764854938#0 -190525143#1 -190525143#0 -190532666 83067368#0 83067368#1 83067368#2 190532694#0 190532694#2 190532694#4 190532694#5 190532694#6 190532694#7 190532694#8 190532694#9 190532694#10 190532694#11 190532694#12 190532694#13 930577698 930577695#0 930577695#1 930577695#2 930577695#3 930577695#4 930577695#5 930577695#6 930577695#7 930577695#8 930577695#10 930577695#11 930577695#12 930577695#13 930577695#14 930577695#15 930577695#16 -190545254#3 -190545254#2"/>
    </vehicle>
    <vehicle id="dang16" type="Dangerous" depart="64.00">
        <route edges="-11137173#0 11148409 11117489#0 11117489#1 11117489#2 11117489#3 11117489#4 11117489#5 11117489#6 11117489#7 11117489#8 195485120#23 195485120#24 195485120#25 195485120#26 -617152586#1 -757253374#4 -757253374#3 -757253374#2 -757253374#1 -757253374#0 -757253373 -617152589 -617152588 -11148909#3 -11148909#1 83135927#1 105108001#0 105108001#1 105108001#2 105108001#3 105108001#4 105108001#5 1123338339 190525147#1 1007999947 860909989 860909994 860909992#0 860909992#1 860909988 860909987#0 860909987#1 977105634 860909990 -856193612#3 -856193612#2 -856193612#1 -190525148#3 -190525148#2 -190525148#1 -190525148#0 190532677#0 190532677#1 763289592 763289593#0 763289593#1 763289593#2 680631530#1 190532676#0 190532676#1 190532676#2 190532676#3 190532676#4 -190532676#4 -190532676#3 -190532676#2 -190532676#1"/>
    </vehicle>
    <vehicle id="dang17" type="Dangerous" depart="68.00">
        <route edges="11153275#5 -11153275#5 -11153275#4 -124955245#1 -124955245#0 -522403954#2 -522403954#1 -522403958 124955254#0 1089772293 1089772295#0 1089772295#1 1089772297 1089772299 821265069#1 821265069#2 82541603#0 82541603#1-AddedOnRampEdge 82541603#1 104910600#0 828830553#1 828830553#2 828830553#3 1055284737 855922550 535323898#0 535323898#1 1061625385#0 1061625385#1 535323897 1061625384 1061625382 1061625381 1061625383 534491415#0 -930577695#8 -930577695#7 -930577695#6 -930577695#5 -930577695#4 -930577695#3 -930577695#2 -930577695#1 -930577695#0 -930577698 -190532694#13 -190532694#12 -190532694#11 -190532694#10 -190532694#9 -190532694#8 -190532694#7 -190532694#6 -190532694#5 -190532694#4 -190532694#3 -190532694#0 -83067368#2 -83067368#1 -83067368#0 190532666 190525143#0 190525143#1 764854938#0 764854938#1 190525142#0 190525142#1 190525142#2 190525142#3 190525142#4 190525142#5 -11118610#3 -11118610#2 -11118610#1 -671751823#11"/>
    </vehicle>
    <vehicle id="dang18" type="Dangerous" depart="72.00">
        <route edges="-684958157#3 -684958157#2 -684958157#1 -684958157#0 -732919657#1 -732919657#0 -758329870#13 -758329870#12 -758329870#10 -758329870#9 -758329870#8 -758329870#7 -758329870#6 -758329870#5 -758329870#4 -758329870#3 -758329870#2 -758329870#1 -758329870#0 -758329871 -758329868 -977052511#2 -977052511#0 -190680592 -1144608311 -1144608310#1 -1144608309 -1144608307 -1144608306#1 -1144608306#0 -1144608305 -1144608304#1 -1144608304#0 -1144608303#1 -1144608303#0 -1144608302 -1144608301 -1144608300#1 -1144608300#0 -1144608299 -1144608298#1 -1144608298#0 -1144608296#0 -1144608297 -1144608295#2 -1144608295#1 -1144608295#0 -1144608294 -1144608293#2 -1144608293#1 -1144608292#1 -1144608292#0 -11163291#2"/>
    </vehicle>
    <vehicle id="dang19" type="Dangerous" depart="76.00">
        <route edges="11157063#0 -855933743#2 -11156516#0 -1130613352#2 -1130613352#1 -1130613352#0 -1130613351 -1130613350 -1130613349#2 -1130613349#0 -1130613348 -1130613346#0 -1130613347#1 -1130613347#0 -1130613345 -733886318#1 -733886318#0 -733886319 -424069377 -190659846 -1121165905 -1121165904 -1121165903#1 -1121165903#0 -1121164599 -1121164600#1 -1121164600#0 -1121164601 -343709665 190525061#0 190525061#1 190525061#2 190525061#3 190525061#4 190525061#5 190525061#6 190525061#7 519224276#0 -518452467#12 -518452467#11 -518452467#9 -518452467#8 -518452467#7 -518452467#6 -518452467#4 -518452467#3 -518452467#1 -518452466 -535301567#8 -535301567#7 -535301567#6 -535301567#5 -535301567#3 -535301567#2 -535301567#1 -617152585#0 -535301568#2 -535301568#1 -535301568#0 -11153367#3 -11153367#2 -11153367#1 -11153367#0 49237831#0 49237831#1 49237831#2 49237831#3 49237831#4 1052911988#0 1052911988#1 1052911988#2 49237823 1066986777#0 1066986777#1 1066986777#2 1066986776#0 87573114#1 87573114#2 87573114#4 87573114#7 11148216#0 11148216#1 11148216#2 11148216#3 11148216#4 11148216#5"/>
    </vehicle>
    <vehicle id="dang20" type="Dangerous" depart="80.00">
        <route edges="-11151690#5 -11151690#4 -11151690#3 -11151690#2 -11151690#1 -11151690#0 1055333438 1055333436#1 535323895#1 535323895#2 534491414#0 534491414#1 534491414#2 534491414#3 534491414#4 -1147831887#0 -1147831886#2 -1147831886#0 -977109048#4 -977109048#3 -977109048#2 -977109048#1 -977109048#0 -1147831885 -1147831883 -1147831884 -1147831882 -1147831881#7 -1147831881#6 -1147831881#5 -1147831881#3 -1147831881#1 -1147831881#0 -1147831880 -1147831879#1 -190545232#52 -190545232#50 -190545232#47 -190545232#46 -190545232#45 -190545232#44 -190545232#42 -190545232#41 -190545232#40 -190545232#39 -190545232#38 -190545232#37 -190545232#36 -190545232#35 -190545232#34 -190545232#33 -190545232#32 -190545232#31 -190545232#30 -190545232#29 -190545232#28 -190545232#27 -190545232#25 -190545232#24 -190545232#23 -190545232#22 -190545232#20 -190545232#19 -190545232#18 -190545232#17 -190545232#16 -190545232#15 -190545232#14 -190545232#13 -134544915#23 -134544915#22 -134544915#21 -134544915#20 -134544915#19 -134544915#18 -134544915#17 -134544915#16 -134544915#15 -134544915#14 -1147929830 -11148666#6 -11148666#5 -11148666#4 -11148666#3 -11148666#2 -11148666#1 -11148666#0 -978728818#3 -978728818#2 -978728818#1 135310790#5 135310790#6"/>
    </vehicle>
    <vehicle id="dang21" type="Dangerous" depart="84.00">
        <route edges="-11151055#8 -11151055#7 -11151055#6 190867843#14 190867843#15 190867843#16 190867843#17 1146411221 1146411222 977558401#0 856193612#1 856193612#2 856193612#3 977105633 977105632 860909986 860909991 190867804 860909993 860909984 -1007999947 -190525147#1 -1123338339 -105108001#5 -105108001#4 -105108001#3 -105108001#2 -105108001#1 -105108001#0 -617152587 11148909#1 11148909#3 617152588 617152589 757253373 757253374#0 757253374#1 757253374#2 757253374#3 757253374#4 617152586#1 -195485120#26 -195485120#25 -195485120#24 -195485120#23 11117489#9 11117489#10 -788353103#2"/>
    </vehicle>
    <vehicle id="dang22" type="Dangerous" depart="88.00">
        <route edges="915129498#0 190525129#3 190525129#4 190525129#6 190525129#7 190525129#8 190819743#3 190819743#4 905730872 1067759912 763689577 1067759914#0 679910702#1 998331106 47472500 87659316 87659316-AddedOffRampEdge 47472524 47472529 445305031 190545271#0 190545271#1 190545271#3 419506850 86662041#0 86662041#1 190819745#0 190819745#1 190819745#2 159482673#0 159482673#1 571662499 159482674 534501052 159482675#1 398217680 398217654 398217682 47472235 190545257#1 47472234#0 47472234#1 86097748#1-AddedOnRampEdge 86097748#1 86097748#1-AddedOffRampEdge 1051889474 -159249478#4 -159249478#3 -159249478#2 -159249478#1 -159249478#0 -534881030 -1060646070 -128709044 135310839#0 135310839#1 135310839#2 135310839#3 135310839#4 135310839#5 135310839#6 135310839#7 135310839#8 135310839#9 135310839#10 135310839#11 135310839#14 135310839#15 -190867823#11 -190867823#10 -190867823#9 -190867823#8 -190867823#7 -190867823#6 -190867823#5 -190867823#4 11155161#1 11155161#2 11155161#4"/>
    </vehicle>
    <vehicle id="dang23" type="Dangerous" depart="92.00">
        <route edges="11138157#4 684958156 684958155 -190680594#1 11104062#0 11104062#1 190680648#2-AddedOnRampEdge 190680648#2 997143336 997143335 997143335-AddedOffRampEdge 11106117 84829890#0 86441432#1 86441432#2 86441432#3 86441432#4 86441432#5 534444160#0 534444160#1 534491804#1 11169112#0"/>
    </vehicle>
    <vehicle id="dang25" type="Dangerous" depart="100.00">
        <route edges="-11169157#1 -190659947#3 -190659947#2 -190659947#1 -190659947#0 -608520366#2 -608520366#1 -608520366#0 -83197667#3 -83197667#2 -83197667#1 -83197667#0 83197733#0 83197733#2 83197733#3 83197733#4 83197733#5 83197733#6 -190557194#2 -190557194#1 -190557194#0 -190867823#11 -190867823#10 -190867823#9 -190867823#8 -190867823#7 -190867823#6 -190867823#5 -190867823#4 -190867823#3 -190867823#2 -190867823#1 -190867823#0 -190867822 -534491799#12 -534491799#11 -534491799#10 -534491799#9 -534491799#8 -534491799#6 -534491799#5 -534491799#4 -534491799#3 -534491799#2 -534491799#1 -534491799#0 -1086359503#12 -1086359503#10 -1086359503#9 -1086359503#7 -1086359503#6 -1086359503#5 -1086359503#4 -1086359503#2 -1086359503#1 -1086359503#0 -190532708#1 -190532709#9 -190532709#8 -190532709#7 -190532709#6 -190532709#4 -190532709#3 -190532709#2 -190532709#1 -190532709#0 -84829888#8 -84829888#7 -84829888#5 -84829888#3 -84829888#1 -84829888#0 -83070584 -134544914#2 84829885#0 84829885#1 84829885#2 -11115759#3 -11115759#2"/>
    </vehicle>
    <vehicle id="dang26" type="Dangerous" depart="104.00">
        <route edges="-197933276#4 -83041273#3 -83041273#2 -83041273#1 -83041273#0 -83041270#3 -83041270#2 -83041270#1 -83041270#0 -1124152026#9 -1124152026#8 -1124152026#7 -1124152026#6 -1124152026#5 -1124152026#4 -1124152026#3 -1124152026#2 -1124152026#1 -1124152026#0 -1124152025 -1124152024#1 -1124152024#0 -1124152023#1 -1124152020#1 -1124152020#0 -1124152019#0 -11163852#9 -11163852#8 -11163852#4 -11163852#3 -11163852#2 -11163852#1 -1123835883#0 -1123835882#0 -519224273#5 -519224273#4 -519224273#3 -519224273#2 -519224273#1 -519224273#0 -518452467#12 -518452467#11 -518452467#9 -518452467#8 -518452467#7 -518452467#6 -518452467#4 -518452467#3 -518452467#1 -518452466 -535301567#8 -535301567#7 -535301567#6 -535301567#5 -535301567#3 -535301567#2 -535301567#1 11148909#1 11148909#3 617152588 617152589 757253373 757253374#0 757253374#1 757253374#2 757253374#3 757253374#4 617152586#1 190545190#1 190545190#3 190545190#4 49239037#1 49239037#2 49239037#3 49239037#4 49239037#5 49239037#6 -190525030#4 -190525030#2 -190525030#1"/>
    </vehicle>
    <vehicle id="dang27" type="Dangerous" depart="108.00">
        <route edges="-11163858#10 -104946912#3 -104946912#2 -104946912#1 -104946912#0 -124955255#1 -11142622#15 -11142622#13 -11142622#12 -11142622#11 -11142622#10 -11142622#9 -11142622#8 -11142622#7 -11142622#6 -11142622#5 -11142622#4 -11142622#3 -11142622#2 -11142622#1 -11142622#0 -828830550#1 -828830550#0 -1147831887#0 -1147831886#2 -1147831886#0 -977109048#4 -977109048#3 -977109048#2 -977109048#1 -977109048#0 -1147831885 -1147831883 -1147831884 -1147831882 -1147831881#7 -1147831881#6 -1147831881#5 -1147831881#3 -1147831881#1 -1147831881#0 -1147831880 -1147831879#1 -1144608292#1 -1144608292#0 -1144608291 -1144608290 -1144608289 -419742966 -419742967 -419742965 -419742964 83067383#1"/>
    </vehicle>
    <vehicle id="dang28" type="Dangerous" depart="112.00">
        <route edges="534729142#2 -534729142#2 -534729142#1 -534729142#0 534729141#0 534729141#1 125552985#0 125552985#1 125552985#2 190867866#0 84829883#0 84829883#1 159763211#1 39091112 1018194573 912789475 11104645 1020763627 -684958155 -684958156 -732919657#1 -732919657#0 -758329870#13 -758329870#12 -758329870#10 -195485140#2"/>
    </vehicle>
    <vehicle id="dang29" type="Dangerous" depart="116.00">
        <route edges="11160457#2 11160457#3 11160457#4 -1124152026#0 1124152027 105107999#0 105107999#1 105107999#2 1124152029 424766016#0 424766016#1 424766016#2 424766016#3 424766016#4 424766016#5 424766016#6 764854942 -190532666 -190675516#5 -190675516#4 -190675516#3 -190675516#2 -190675516#0 -535281605 -535281793#1 -535281793#0 -535281613#2 -535281613#1 -535281613#0 -134544915#27 -134544915#26 -134544915#25 -134544915#24 -134544915#23 -134544915#22 -134544915#21 -134544915#20 -134544915#19 -134544915#18 -134544915#17 -134544915#16 -134544915#15 -134544915#14 -134544915#12 -134544915#11 -134544915#9 -134544915#8 -134544915#7 -134544915#6 -134544915#5 -134544915#4 -134544915#3 -134544915#2 -134544915#1 -134544915#0 -775565369 -775565368 -157462157 -743356232 -82541674 -398329011 -993098815 -287326472 82541669 -11148535 11167976 398329023 398329022#0 398329027 163069951#0 163069951#1 163069951#2 163069951#3 163069951#4 163069951#5 163069951#6 163069951#7 163069951#8 -83067399"/>
    </vehicle>
    <vehicle id="dang30" type="Dangerous" depart="120.00">
        <route edges="757253374#0 757253374#1 757253374#2 757253374#3 757253374#4 617152586#1 -617152586#1 -757253374#4 -757253374#3 -757253374#2 -757253374#1 -757253374#0 -757253373 -617152589 -617152588 -11148909#3 -11148909#1 83135927#1 105108001#0 105108001#1 105108001#2 105108001#3 105108001#4 105108001#5 1123338339 190525147#1 1007999947 860909989 860909994 860909992#0 860909992#1 860909988 860909987#0 860909987#1 977105634 860909990 -856193612#3 -856193612#2 -856193612#1 -190525148#3 -190525148#2 -190525148#1 -190525148#0 190532677#0 190532677#1 763289592 763289593#0 763289593#1 763289593#2 680631530#1 190532676#0 190532676#1 190532676#2 190532676#3 190532676#4 190545232#0 190545232#2 190545232#3 190545232#5 190545232#8 190545232#9 190545232#10 190545232#11 190545232#12 190545232#13 190545232#14 190545232#15 190545232#16 190545232#17 190545232#18 190545232#19 190545232#20 190545232#22 190545232#23 190545232#24 190545232#25 190545232#27 190545232#28 190545232#29 190545232#30 190545232#31 190545232#32 190545232#33 190545232#34 190545232#35 190545232#36 190545232#37 190545232#38 190545232#39 190545232#40 190545232#41 190545232#42 190545232#44 190545232#45 190545232#46 190545232#47 190545232#50 190545232#51 1144608293#0 1144608293#2 1144608294 1144608295#0 1144608295#1 1144608295#2 1144608297 1144608296#0 1144608298#0 1144608298#1 1144608299 1144608300#0 1144608300#1 1144608301 104946910#0 104946910#1 104946910#2 104946910#3 104946910#4 104946910#5 104946910#6 104946910#7 104946910#8 104946910#9 104946910#10 104946910#11 104946911#3 1055333437#2"/>
    </vehicle>
    <vehicle id="dang31" type="Dangerous" depart="124.00">
        <route edges="-167158233#0 167158233#0 167158233#1 105107999#1 105107999#2 1124152029 424766016#0 424766016#1 424766016#2 424766016#3 424766016#4 424766016#5 424766016#6 764854942 -190532666 83067368#0 83067368#1 83067368#2 190532694#0 190532694#2 190532694#4 190532694#5 190532694#6 190532694#7 190532694#8 190532694#9 -190680592 -1144608311 -1144608310#1 -1144608309 -1144608307 -1144608306#1 -1144608306#0 -1144608305 -1144608304#1 -1144608304#0 -1144608303#1 -1144608303#0 -1144608302 -1144608301 -1144608300#1 -1144608300#0 -1144608299 -1144608298#1 -1144608298#0 -1144608296#0 -1144608297 -1144608295#2 -1144608295#1 -1144608295#0 -1144608294 -1144608293#2 -1144608293#1 1147831879#0 1147831880 1147831881#0 1147831881#1 1147831881#3 1147831881#5 1147831881#6 1147831881#7 1147831882 1147831884 -1147831884"/>
    </vehicle>
    <vehicle id="dang32" type="Dangerous" depart="128.00">
        <route edges="11143339#2 11143339#3 11143342#0 11143342#1 -1011729120#9 -1011729120#8 -1011729120#7 -1011729120#6 -1011729120#5 -1011729120#4 -1011729120#3 11117115#7 11117115#8 -83069291#1 -83069291#0 83069299#0 83069299#1 83069299#2 83069299#3 83069299#4 83069299#5 83069299#6 802786514#0 802786514#1 11163852#8 11163852#9 1124152019#0 1124152019#1 1124152020#1 1124152023#1 1124152024#0 1124152024#1 1124152025 1124152027 105107999#0 105107999#1 105107999#2 1124152029 424766016#0 424766016#1 424766016#2 424766016#3 424766016#4 424766016#5 424766016#6 764854942 -190532666 83067368#0 83067368#1 83067368#2 190532694#0 190532694#2 -534454622#12 -534454622#11 11163853#0 11163853#1 647043555#0 647043555#1"/>
    </vehicle>
    <vehicle id="dang33" type="Dangerous" depart="132.00">
        <route edges="-83197733#2 -83197733#0 83197667#0 83197667#1 83197667#2 83197667#3 608520366#0 608520366#1 608520366#2 190659947#0 190659947#1 190659947#2 190659947#3 190659947#4 129195266 129195267 47472251#0 47472251#1 47472251#2 86662338#0 86662338#1 906510651 83197740 484695874 47472237 484695878 190675543#0 190675543#1 424043928#1 129195218 190545272 159482672-AddedOnRampEdge 159482672 190867868 83197674 1152576784#0 1152576784#1 419506851 47472501 419506852 445305033 679910701-AddedOnRampEdge 679910701 445305030 190545273 445305029 47472527 86662267 86663005#0 47472495#1 47472495#1-AddedOffRampEdge 86663193 901265409 901265410 1051276120 901265411#0 911635107#1 911635108#2 83067378#0 83067378#1 83067378#2 83067378#3 83067378#4 83067378#5 83067378#6 83067378#7 83067378#8 83067378#9 -190525157#5 -190525157#4 -11165838#4"/>
    </vehicle>
    <vehicle id="dang34" type="Dangerous" depart="136.00">