<?xml version="1.0" ?>
<additional xmlns:xsi="http://www.w3.org/2001/XMLSchema-instance" xsi:noNamespaceSchemaLocation="http://sumo.dlr.de/xsd/additional_file.xsd">
   
    <vType id="Dangerous" minGap="1.00" maxSpeed="20.00" color="red" accel="4" decel="3" emergencyDecel="10" stepping="0.5" apparentDecel="3" tau="0.70" speedFactor="1.2" carFollowModel= "IDM"/>
    <vType id="Normal" minGap="2.5" maxSpeed="14.00" color="yellow" accel="2" decel="3" emergencyDecel="10" apparentDecel="3" stepping="0.25" tau="2.00" speedFactor="1.2" carFollowModel= "IDM"/>
    <vType id="Slow" minGap="2.50" maxSpeed="12.00" desiredMaxSpeed="10.00" color="blue" accel="1" decel="3" emergencyDecel="10" stepping="0.25" speedFactor="0.9" tau = "3.00" carFollowModel= "IDM"/>
    
</additional>
