<?xml version="1.0" encoding="UTF-8"?>

<!-- generated on 2023-12-14 14:48:49.096159 by randomTrips.py v1_19_0+0000-baa66a0f364
<configuration>
    <net-file value="Miami_Test6_3000V_IDM_warningcollect.net.xml"/>
    <additional-files value="vType_badr.add.xml"/>
    <output-trip-file value="Normal_trips.xml"/>
    <route-file value="3000v_Normal_routes.rou.xml"/>
    <trip-attributes value="type=&quot;Normal&quot;"/>
    <end value="3000"/>
    <min-distance.fringe value="500.0"/>
    <max-distance value="5000.0"/>
    <period value="1.0"/>
</configuration>
-->

<!-- generated on 2023-12-14 14:48:44 by Eclipse SUMO duarouter Version 1.19.0
<configuration xmlns:xsi="http://www.w3.org/2001/XMLSchema-instance" xsi:noNamespaceSchemaLocation="http://sumo.dlr.de/xsd/duarouterConfiguration.xsd">

    <input>
        <net-file value="Miami_Test6_3000V_IDM_warningcollect.net.xml"/>
        <additional-files value="vType_badr.add.xml"/>
        <route-files value="Normal_trips.xml"/>
    </input>

    <output>
        <output-file value="3000v_Normal_routes.rou.xml"/>
        <alternatives-output value="NUL"/>
    </output>

    <time>
        <begin value="0"/>
        <end value="3000"/>
    </time>

    <report>
        <no-warnings value="true"/>
        <ignore-errors value="true"/>
        <no-step-log value="true"/>
    </report>

</configuration>
-->

<routes xmlns:xsi="http://www.w3.org/2001/XMLSchema-instance" xsi:noNamespaceSchemaLocation="http://sumo.dlr.de/xsd/routes_file.xsd">
    <vType id="Normal" minGap="2.40" maxSpeed="14.00" speedFactor="1.20" color="yellow" carFollowModel="IDM" accel="2" decel="3" emergencyDecel="5" apparentDecel="3" tau="1.00"/>
    <vehicle id="normal0" type="Normal" depart="0.00">
        <route edges="11154420#0 11164706#1 11164706#2 856214059#12 856214059#13 856214060#0 856214060#1 856214060#2 856214060#3 856214060#4 856214060#5 1152574792 127683449 83150167#1 190675543#0 190675543#1 83197679#1 86097748#0 86097748#1-AddedOnRampEdge 86097748#1 86097748#1-AddedOffRampEdge 1051889474 -159249478#4 -159249478#3 -159249478#2 -159249478#1 -159249478#0 -534881030 -1060646070 -128709044 -1148220251 -128709046#15 -128709046#14 -128709046#13 -128709046#12 -128709046#11 -128709046#10 125004810#8 125004810#10 125004810#11 1080284747 -1080284747"/>
    </vehicle>
    <vehicle id="normal1" type="Normal" depart="1.00">
        <route edges="-190525155#2 -190525155#1 -830167565#2 -830167565#1 -830167565#0 -190525130#19 -190525130#18 -190525130#17 -190525130#16 -190525130#15 -190525130#14 -190525130#13 -190525130#12 -190525130#11 -190525130#10 -190525130#9 -190525130#8 -190525130#7 -190525130#6 -190525130#2 -190525130#1 -190525130#0 -190525135#2 -190525135#1 -83067383#9 -83067383#8 -83067383#6 -83067383#5 -83067383#4 -83067383#3 -83067383#2 -83067383#1 190525149#1 419742965 419742967 419742966 -11116613#6 -11116613#5 -11116613#4 -11123934#1 -11121847#5 -11121847#4 -11121847#3 -11121847#2 -11121847#1 -11121847#0 -1147929830 -11148666#6 -11148666#5 -11148666#4 -11148666#3 -11148666#2 -11168098#4 -11168098#3 -11168098#2"/>
    </vehicle>
    <vehicle id="normal2" type="Normal" depart="2.00">
        <route edges="159249478#4 -159249478#4 -159249478#3 -159249478#2 -159249478#1 -159249478#0 -534881030 -1060646070 -128709044 -1148220251 -128709046#15 -128709046#14 -128709046#13 -128709046#12 -128709046#11 -128709046#10 -128709046#9 -128709046#8 -128709046#7 -128709046#5 -128709046#4 -128709046#3 -128709046#2 -128709046#1 -128709046#0 -195485129#26 -195485129#25 -195485129#24 -195485129#23 -195485129#22 -195485129#21 -195485129#20 -195485129#19 -195485129#18 -195485129#17 -195485129#16 -195485129#15 -195485129#14 -195485129#13 -195485129#12 -195485129#11 -195485129#10 -195485129#9 -195485129#8 -195485129#7 -195485129#6 -195485129#5 -195485129#3 -195485129#2 -195485129#1 190166582#0 190166582#1 190166582#2 190166582#3 190166582#4 190867865 1022168412 86441432#0 86441432#1 86441432#2 86441432#3 86441432#4 86441432#5 534444160#0 534444160#1 534729143 -1086359503#12 -1086359503#10 -1086359503#9 -1086359503#7 -1086359503#6 -11167106#4 -11167106#3 -11167106#2 -11167106#1 11167106#1"/>
    </vehicle>
    <vehicle id="normal3" type="Normal" depart="3.00">
        <route edges="-930577695#3 930577695#3 930577695#4 930577695#5 930577695#6 930577695#7 930577695#8 930577695#10 930577695#11 930577695#12 930577695#13 930577695#14 930577695#15 930577695#16 190545254#4 190545254#5 190545254#6 190545254#7 190545254#8 190545254#9 190545254#10 190545254#11 190545254#12 190545254#13 190545254#14 190545254#15 190545254#16 190545254#17 190545254#18 195485125#0 195485125#1 195485125#2 195485125#3 43475417 47472249 1002175077-AddedOnRampEdge 1002175077 -190545257#2 -190545257#1 -135335324#5 -135335324#2 -135335324#1 -135335324#0 -11115721#19 -11115721#17 -11115721#16 -11115721#15 -11115721#14 -11115721#13 -11115721#12"/>
    </vehicle>
    <vehicle id="normal4" type="Normal" depart="4.00">
        <route edges="-1086359503#10 -1086359503#9 -1086359503#7 -1086359503#6 -1086359503#5 -1086359503#4 -1086359503#2 -1086359503#1 -1086359503#0 -190532708#1 350646237#1 350646237#2 398334266#0 398334266#1 350660456#0 350660456#1 1051791338 84829886 190680594#0 190680594#1 -684958155 -684958156 -732919657#1 -732919657#0 -758329870#13 -758329870#12 -758329870#10 -195485140#2 -195485140#1 -195485140#0 -534454618#5 -534454618#4 -534454618#3 -534454618#1 -534454618#0 -86097749#6 -86097749#5 -86097749#4 -86097749#2 -86097749#1 -86097749#0 -86097730 -128709041#4 -128709041#3 -128709041#2 -128709041#1 -128709041#0 -195485136#0 -195485132#0 -86097744#8 -86097744#7 -86097744#6 -86097744#5 -86097744#3 -86097744#1 -86097744#0 86097733#0 86097733#1 190532645 905467133 905467135 285325244 905302126#0 905302126#1 905302126#2 905302126#3 905302126#4 424766011 -11160457#6 -11160457#5"/>
    </vehicle>
    <vehicle id="normal5" type="Normal" depart="5.00">
        <route edges="11158050#1 -11126772#4 -11126772#3 -11126772#1 -11126772#0 -49238755#1 -49238755#0 11122052 1066986777#2 1066986776#0 11129281#1 11129281#2 11129281#3 11129281#4 11133644"/>
    </vehicle>
    <vehicle id="normal6" type="Normal" depart="6.00">
        <route edges="-11168082#2 11159636#4 11159636#5 11148666#6 1147929830 134544915#14 134544915#15 134544915#16 134544915#17 134544915#18 134544915#19 134544915#20 134544915#21 134544915#22 134544915#23 134544915#24 134544915#25 134544915#26 134544915#27 535281613#0 535281613#1 535281613#2 535281793#0 535281793#1 535281605 190675516#0 190675516#2 190675516#3 190675516#4 190675516#5 190532666 190525143#0 190525143#1 764854938#0 764854938#1 190525142#0 190525142#1 190525142#2 190525142#3 190525142#4 190525142#5 190525142#7 190525142#8 190525142#9 1000521230 387359098#0 387359098#1 134544911#0 134544914#0 134544914#1 134544914#2 83070584 84829888#0 84829888#1 84829888#3 84829888#5 84829888#7 84829888#8 977066579#0 11143980#0 11143980#1"/>
    </vehicle>
    <vehicle id="normal7" type="Normal" depart="7.00">
        <route edges="198225608#3 198225608#4 198225608#5 -930577695#1 -930577695#0 -930577698 -190532694#13 -190532694#12 -190532694#11 -190532694#10 -190532694#9 -190532694#8 -190532694#7 -190532694#6 -190532694#5 -190532694#4 -190532694#3 -190532694#0 -83067368#2 -83067368#1 -83067368#0 -135310823#8 -135310823#7 -135310823#6 -135310823#5 -135310823#4 -135310823#3 -135310823#2 1053851197 1053851198 -1124152029 -1124152028 -105107999#1 -105107999#0 -1124152027 1124152026#0 1124152026#1"/>
    </vehicle>
    <vehicle id="normal8" type="Normal" depart="8.00">
        <route edges="84829897#5 -84829897#5 -84829897#4 -84829897#3 -84829897#2 -84829897#1 -84829897#0 -285325240#0 190532646 190680583#0 190680583#1 190680583#3 534772448 534422155 190532645 905467133 905467135 285325244 905302126#0 905302126#1 905302126#2 905302126#3 905302126#4 905302126#5 905302126#6 -1124152029 -1124152028 -105107999#1 -105107999#0 -1124152027 -1124152025 -1124152024#1 -1124152024#0 -1124152023#1 -1124152020#1 -1124152020#0 -1124152019#0 -11163852#9 -11163852#8 -11163852#4 -11163852#3 -11163852#2 -11163852#1 -49239038#23 -49239038#22 -49239038#21 -49239038#19 -49239038#17 -49239038#14 -49239038#13 -49239038#12 -49239038#11 -49239038#10 -49239038#9 -49239038#8 -49239038#7 -49239038#6 -49239038#5 -49239038#4 -49239038#2 -49239038#1"/>
    </vehicle>
    <vehicle id="normal9" type="Normal" depart="9.00">
        <route edges="-11133633#1 -11133633#0 -11127834#8 -11127834#7 -11127834#6 -11127834#2 -11127834#1 -11127834#0 11117199 617152570#0 617152570#1 617152570#2 617152570#3 617152570#4 190659849#0 190659849#1 190659849#2 -134407856#9 -134407856#8 -134407856#7 -134407856#6 -190525089#3 -190525089#2 -190525089#1 484753290#1 132683099#0 132683099#1 132683099#2 132683099#3 1082102168 1082102169#0 190525030#1 190525030#2 190525030#4 190545151#0 190545151#1 788353102 788353103#0 788353103#1 788353103#2 788353103#5 788353103#8 788353103#9 788353103#10 788353103#11 788353103#12 788353103#13 788353103#14 788353103#15 788353103#18 788353103#19 788353103#20 773014399#0 773014399#1 855933749#1 1082957692#0 1082957692#1 1082957692#2 1082957692#3 1082957692#4 1082957692#5 1082957692#6 190545152#0 1058615863#1 190545194#1 190545194#2 190545197#1 190545197#2 190545197#3 11155813#0 11155813#1 -11133905#4"/>
    </vehicle>
    <vehicle id="normal10" type="Normal" depart="10.00">
        <route edges="47472238#1 398217655 86097751#0 86097751#1 86097751#2 -11162377#8 -11162377#7 11126995#0 11126995#1 11126995#2 11126995#3 275390697#0 275390697#1 47472251#1 47472251#2 86662338#0 86662338#1 906510651 83197740 484695874 47472237 484695878 190675543#0 190675543#1 83197679#1 -190545257#2 -190545257#1 -135335324#5 -135335324#2 -135335324#1 -135335324#0 -11115721#19 -11115721#17 11147305#0 11147305#1 11147305#2 11147305#3"/>
    </vehicle>
    <vehicle id="normal11" type="Normal" depart="11.00">
        <route edges="199543161#3 11161593#0 11161593#1 11128337#1 11128337#3 420073416#0 420073416#1 420073415#0 420073415#1 1119776980#0 1119776980#1 190557119#0 190557119#2 1119776983 1119776981#1 1119776981#2 1119776982#0 84507532#0 84507532#2 84507532#3 1120283988 190525118#0 190525118#2 190659856#0 190659856#1 588384276 44659126#1 44659126#2 855933747#0 855933747#1 855933747#2 855933747#4 855933747#5 534672528#0 534672528#1 519224273#0 519224273#1 519224273#2 519224273#3 519224273#4 519224273#5 1123835882#0 1123835883#0 11163852#1 11163852#2 11163852#3 11163852#4 11163852#8 11163852#9 1124152019#0 1124152019#1 1124152020#1 190867843#1 190867843#2 190867843#3 1053851196#1 1053851196#2 1053851196#3 1053851196#4 1053851196#5 1053851196#6 1053851196#7 1053851196#8 135310823#2 135310823#3 135310823#4 135310823#5"/>
    </vehicle>
    <vehicle id="normal12" type="Normal" depart="12.00">
        <route edges="11132230#4 11132230#8 11132230#10 -190545186#1 -49239037#6 -49239037#5 -49239037#4 -49239037#3 -49239037#2 -49239037#1 -190545190#4 -190545190#3 -190545190#1 -617152586#1 -757253374#4 -757253374#3 -757253374#2 -757253374#1 -757253374#0 -757253373 -617152589 -617152588 -11148909#3 -11148909#1 535301567#1 535301567#2 535301567#3 535301567#5 535301567#6 535301567#7 535301567#8 518452466 518452467#1 518452467#3 518452467#4 518452467#6 518452467#7 518452467#8 518452467#9 518452467#11 518452467#12 519224273#0 519224273#1 519224273#2 519224273#3 519224273#4 519224273#5 1123835882#0 1123835883#0 11163852#1 11163852#2 11163852#3 11163852#4 11163852#8 11163852#9 1124152019#0 1124152019#1 1124152020#1 -1124152022#13 -1124152022#11 -1124152022#10 -1124152022#9 -1124152022#8 -1124152022#7 -1124152022#5 -1124152022#4 -1124152022#3 -1124152022#2 -1124152022#1 -1124152022#0 128575956#0 128575956#1 1050311185 1050311187#1 1050311187#3 86097743 195485141#0 195485141#1 195485141#2 195485141#4 195485138#0 195485138#1 -680631532 -195485143#5 -195485143#4 -195485143#2 -195485143#0 -190532749 -679910677 -86097733#1 -86097733#0 86097744#0 86097744#1 86097744#3 86097744#5 86097744#6"/>
    </vehicle>
    <vehicle id="normal13" type="Normal" depart="13.00">
        <route edges="39091091#2-AddedOnRampEdge 39091091#2 190680570-AddedOnRampEdge 190680570 39091062 39091062-AddedOffRampEdge 39089491 1065209076 134544925 534658422#0 534658422#1 534658422#2 534658422#3 -83041270#3 -83041270#2 -83041270#1 -83041270#0 -1124152026#9 -1124152026#8 -1124152026#7 -1124152026#6 -1124152026#5 -1124152026#4 -1124152026#3 -1124152026#2 -1124152026#1 -1124152026#0 -83041284#21 -83041284#20 -83041284#19 -83041284#18 -83041284#17 -83041284#16 -83041284#15 -83041284#14 -83041284#13 -83041284#12 -11151055#12 -11151055#11 -11151055#10 -11151055#9 11151055#9"/>
    </vehicle>
    <vehicle id="normal14" type="Normal" depart="14.00">
        <route edges="503666517#1 738523412#1 11120097#0 11120097#1 738523408#1 738523408#2 738523408#3 738523408#4 -738523408#4 -738523408#3 -738523408#2 -738523408#1 -738523408#0 -11120097#0 -738523412#1 -738523412#0 856193618 1125340878#0 -763289593#2 -763289593#1 -763289593#0 -763289592 -190532677#1 -190532677#0 190525148#0 190525148#1 190525148#2 190525148#3 -977558401#0 -1146411222 -1146411221 -190867843#17 -11142520#1 11142520#1"/>
    </vehicle>
    <vehicle id="normal15" type="Normal" depart="15.00">
        <route edges="-11169121#1 -11169121#0 -285325240#3 -285325240#2 -285325240#1 -285325240#0 190532646 190680583#0 190680583#1 190680583#3 534772448 534422155 190532645 905467133 905467135 285325244 905302126#0 905302126#1 905302126#2 905302126#3 905302126#4 905302126#5 905302126#6 424766016#0 424766016#1 424766016#2 424766016#3 424766016#4 424766016#5 424766016#6 764854942 -190532666 83067368#0 83067368#1 83067368#2 190532694#0 190532694#2 190532694#4 190532694#5 190532694#6 190532694#7 190532694#8 190532694#9 190532694#10 190532694#11 190532694#12 190532694#13 930577698 930577695#0 930577695#1 930577695#2 930577695#3 930577695#4 930577695#5 930577695#6 930577695#7 930577695#8 930577695#10 930577695#11 930577695#12 930577695#13 930577695#14 930577695#15 930577695#16 -190545254#3 -190545254#2"/>
    </vehicle>
    <vehicle id="normal16" type="Normal" depart="16.00">
        <route edges="-11137173#0 11148409 11117489#0 11117489#1 11117489#2 11117489#3 11117489#4 11117489#5 11117489#6 11117489#7 11117489#8 195485120#23 195485120#24 195485120#25 195485120#26 -617152586#1 -757253374#4 -757253374#3 -757253374#2 -757253374#1 -757253374#0 -757253373 -617152589 -617152588 -11148909#3 -11148909#1 83135927#1 105108001#0 105108001#1 105108001#2 105108001#3 105108001#4 105108001#5 1123338339 190525147#1 1007999947 860909989 860909994 860909992#0 860909992#1 860909988 860909987#0 860909987#1 977105634 860909990 -856193612#3 -856193612#2 -856193612#1 -190525148#3 -190525148#2 -190525148#1 -190525148#0 190532677#0 190532677#1 763289592 763289593#0 763289593#1 763289593#2 680631530#1 190532676#0 190532676#1 190532676#2 190532676#3 190532676#4 -190532676#4 -190532676#3 -190532676#2 -190532676#1"/>
    </vehicle>
    <vehicle id="normal17" type="Normal" depart="17.00">
        <route edges="11153275#5 -11153275#5 -11153275#4 -124955245#1 -124955245#0 -522403954#2 -522403954#1 -522403958 124955254#0 1089772293 1089772295#0 1089772295#1 1089772297 1089772299 821265069#1 821265069#2 82541603#0 82541603#1-AddedOnRampEdge 82541603#1 104910600#0 828830553#1 828830553#2 828830553#3 1055284737 855922550 535323898#0 535323898#1 -104946909#2 -104946909#1 -104946909#0 -104946910#11 -104946910#10 -104946910#9 -104946910#8 -104946910#7 -104946910#6 -104946910#5 -104946910#4 -104946910#3 -104946910#2 -104946910#1 -104946910#0 -11151063#13 -11151063#12 -11151063#11 -11151063#10 -11151063#9 -11151063#8 -11151063#7 -11151063#6 -11151063#5 -11151063#4 -11151063#3 -11151063#2 -11151063#1 -11151063#0 535281605 190675516#0 190675516#2 190675516#3 190675516#4 190675516#5 190532666 190525143#0 190525143#1 764854938#0 764854938#1 190525142#0 190525142#1 190525142#2 190525142#3 190525142#4 190525142#5 -11118610#3 -11118610#2 -11118610#1 -671751823#11"/>
    </vehicle>
    <vehicle id="normal18" type="Normal" depart="18.00">
        <route edges="-684958157#3 -684958157#2 -684958157#1 -684958157#0 -732919657#1 -732919657#0 -758329870#13 -758329870#12 -758329870#10 -758329870#9 -758329870#8 -758329870#7 -758329870#6 -758329870#5 -758329870#4 -758329870#3 -758329870#2 -758329870#1 -758329870#0 -758329871 -758329868 -977052511#2 -977052511#0 -190680592 -1144608311 -1144608310#1 -1144608309 -1144608307 -1144608306#1 -1144608306#0 -1144608305 -1144608304#1 -1144608304#0 -1144608303#1 -1144608303#0 -1144608302 -1144608301 -1144608300#1 -1144608300#0 -1144608299 -1144608298#1 -1144608298#0 -1144608296#0 -1144608297 -1144608295#2 -1144608295#1 -1144608295#0 -1144608294 -1144608293#2 -1144608293#1 -1144608292#1 -1144608292#0 -11163291#2"/>
    </vehicle>
    <vehicle id="normal19" type="Normal" depart="19.00">
        <route edges="11157063#0 -855933743#2 -11156516#0 -1130613352#2 -1130613352#1 -1130613352#0 -1130613351 -1130613350 -1130613349#2 -1130613349#0 -1130613348 -1130613346#0 -1130613347#1 -1130613347#0 -1130613345 -733886318#1 -733886318#0 -733886319 -424069377 -190659846 -1121165905 -1121165904 -1121165903#1 -1121165903#0 -1121164599 -1121164600#1 -1121164600#0 -1121164601 -343709665 190525061#0 190525061#1 190525061#2 190525061#3 190525061#4 190525061#5 190525061#6 190525061#7 519224276#0 -518452467#12 -518452467#11 -518452467#9 -518452467#8 -518452467#7 -518452467#6 -518452467#4 -518452467#3 -518452467#1 -518452466 -535301567#8 -535301567#7 -535301567#6 -535301567#5 -535301567#3 -535301567#2 -535301567#1 -617152585#0 -535301568#2 -535301568#1 -535301568#0 -11153367#3 -11153367#2 -11153367#1 -11153367#0 49237831#0 49237831#1 49237831#2 49237831#3 49237831#4 1052911988#0 1052911988#1 1052911988#2 49237823 1066986777#0 1066986777#1 1066986777#2 1066986776#0 87573114#1 87573114#2 87573114#4 87573114#7 11148216#0 11148216#1 11148216#2 11148216#3 11148216#4 11148216#5"/>
    </vehicle>
    <vehicle id="normal20" type="Normal" depart="20.00">
        <route edges="-11151690#5 -11151690#4 -11151690#3 -11151690#2 -11151690#1 -11151690#0 1055333438 1055333436#1 535323895#1 535323895#2 534491414#0 534491414#1 534491414#2 534491414#3 534491414#4 -1147831887#0 -1147831886#2 -1147831886#0 -977109048#4 -977109048#3 -977109048#2 -977109048#1 -977109048#0 -1147831885 -1147831883 -1147831884 -1147831882 -1147831881#7 -1147831881#6 -1147831881#5 -1147831881#3 -1147831881#1 -1147831881#0 -1147831880 -1147831879#1 -190545232#52 -190545232#50 -190545232#47 -190545232#46 -190545232#45 -190545232#44 -190545232#42 -190545232#41 -190545232#40 -190545232#39 -190545232#38 -190545232#37 -190545232#36 -190545232#35 -190545232#34 -190545232#33 -190545232#32 -190545232#31 -190545232#30 -190545232#29 -190545232#28 -190545232#27 -190545232#25 -190545232#24 -190545232#23 -190545232#22 -190545232#20 -190545232#19 -190545232#18 -190545232#17 -190545232#16 -190545232#15 -190545232#14 -190545232#13 -134544915#23 -134544915#22 -134544915#21 -134544915#20 -134544915#19 -134544915#18 -134544915#17 -134544915#16 -134544915#15 -134544915#14 -1147929830 -11148666#6 -11148666#5 -11148666#4 -11148666#3 -11148666#2 -11148666#1 -11148666#0 -978728818#3 -978728818#2 -978728818#1 135310790#5 135310790#6"/>
    </vehicle>
    <vehicle id="normal21" type="Normal" depart="21.00">
        <route edges="-11151055#8 -11151055#7 -11151055#6 190867843#14 190867843#15 190867843#16 190867843#17 1146411221 1146411222 977558401#0 856193612#1 856193612#2 856193612#3 977105633 977105632 860909986 860909991 190867804 860909993 860909984 -1007999947 -190525147#1 -1123338339 -105108001#5 -105108001#4 -105108001#3 -105108001#2 -105108001#1 -105108001#0 -617152587 11148909#1 11148909#3 617152588 617152589 757253373 757253374#0 757253374#1 757253374#2 757253374#3 757253374#4 617152586#1 -195485120#26 -195485120#25 -195485120#24 -195485120#23 11117489#9 11117489#10 -788353103#2"/>
    </vehicle>
    <vehicle id="normal22" type="Normal" depart="22.00">
        <route edges="915129498#0 190525129#3 190525129#4 190525129#6 190525129#7 190525129#8 190819743#3 190819743#4 905730872 1067759912 763689577 1067759914#0 679910702#1 998331106 47472500 87659316 87659316-AddedOffRampEdge 47472524 47472529 445305031 190545271#0 190545271#1 190545271#3 419506850 86662041#0 86662041#1 190819745#0 190819745#1 190819745#2 159482673#0 159482673#1 571662499 159482674 534501052 159482675#1 398217680 398217654 398217682 47472235 190545257#1 47472234#0 47472234#1 86097748#1-AddedOnRampEdge 86097748#1 86097748#1-AddedOffRampEdge 1051889474 -159249478#4 -159249478#3 -159249478#2 -159249478#1 -159249478#0 -534881030 -1060646070 -128709044 135310839#0 135310839#1 135310839#2 135310839#3 135310839#4 135310839#5 135310839#6 135310839#7 135310839#8 135310839#9 135310839#10 135310839#11 135310839#14 135310839#15 -190867823#11 -190867823#10 -190867823#9 -190867823#8 -190867823#7 -190867823#6 -190867823#5 -190867823#4 11155161#1 11155161#2 11155161#4"/>
    </vehicle>
    <vehicle id="normal23" type="Normal" depart="23.00">
        <route edges="11138157#4 684958156 684958155 -190680594#1 11104062#0 11104062#1 190680648#2-AddedOnRampEdge 190680648#2 997143336 997143335 997143335-AddedOffRampEdge 11106117 84829890#0 86441432#1 86441432#2 86441432#3 86441432#4 86441432#5 534444160#0 534444160#1 534491804#1 11169112#0"/>
    </vehicle>
    <vehicle id="normal25" type="Normal" depart="25.00">
        <route edges="-11169157#1 190659947#4 129195266 129195267 47472251#0 47472251#1 47472252 906510649 83197749#0 83197749#1 83197749#2 51738080 51738080-AddedOffRampEdge 1051889485 1119782933 -159249478#4 -159249478#3 -159249478#2 -159249478#1 -159249478#0 -534881030 -1060646070 -128709044 -1148220251 -128709046#15 -128709046#14 -128709046#13 -128709046#12 -128709046#11 -128709046#10 -128709046#9 -128709046#8 -128709046#7 -128709046#5 -128709046#4 -128709046#3 -128709046#2 -128709046#1 -128709046#0 -195485129#26 -195485129#25 -195485129#24 -195485129#23 -195485129#22 -195485129#21 -195485129#20 -195485129#19 -195485129#18 -195485129#17 -195485129#16 -195485129#15 -195485129#14 -195485129#13 -195485129#12 -195485129#11 -195485129#10 -195485129#9 -195485129#8 -195485129#7 -195485129#6 -195485129#5 -195485129#3 -195485129#2 -195485129#1 -931175010#18 -931175010#17 -931175010#16 -931175010#15 -931175010#14 -931175010#13 -931175010#12 -931175010#11 -931175010#10 -931175010#9 -931175010#8 -931175010#7 -931175010#5 -931175010#4 -931175010#3 -931175010#2 -931175010#1 -195485140#4 -195485140#3 -195485140#2 -195485140#1 -195485140#0 -534454618#5 -534454618#4 -534454618#3 -534454618#1 -534454618#0 -86097749#6 -86097749#5 -86097749#4 -86097749#2 -86097749#1 -86097749#0 -86097730 -128709041#4 -128709041#3 -128709041#2 -128709041#1 -128709041#0 -195485136#0 -195485132#0 -86097744#8 82541672#34 82541672#35 82541672#36 -534772436#3 -11115759#2"/>
    </vehicle>
    <vehicle id="normal26" type="Normal" depart="26.00">
        <route edges="-197933276#4 -83041273#3 -83041273#2 -83041273#1 -83041273#0 -83041270#3 -83041270#2 -83041270#1 -83041270#0 -1124152026#9 -1124152026#8 -1124152026#7 -1124152026#6 -1124152026#5 -1124152026#4 -1124152026#3 -1124152026#2 -1124152026#1 -1124152026#0 -83041284#21 -83041284#20 -83041284#19 -83041284#18 -83041284#17 -83041284#16 -83041284#15 -83041284#14 -83041284#13 -83041284#12 -83041284#11 -83041284#10 -83041284#8 -83041284#7 -83041284#6 -83041284#5 -83041284#4 -83041284#3 -83041284#2 -83041284#0 190525148#0 190525148#1 190525148#2 190525148#3 856193612#1 856193612#2 856193612#3 977105633 977105632 860909986 860909991 190867804 860909993 860909984 -1007999947 -190525147#1 -1123338339 -105108001#5 -105108001#4 -105108001#3 -105108001#2 -105108001#1 -105108001#0 -617152587 11148909#1 11148909#3 617152588 617152589 757253373 757253374#0 757253374#1 757253374#2 757253374#3 757253374#4 617152586#1 190545190#1 190545190#3 190545190#4 49239037#1 49239037#2 49239037#3 49239037#4 49239037#5 49239037#6 -190525030#4 -190525030#2 -190525030#1"/>
    </vehicle>
    <vehicle id="normal27" type="Normal" depart="27.00">
        <route edges="-11163858#10 -104946912#3 -104946912#2 -104946912#1 -104946912#0 -124955255#1 -11142622#15 -11142622#13 -11142622#12 -11142622#11 -11142622#10 -11142622#9 -11142622#8 -11142622#7 -11142622#6 -11142622#5 -11142622#4 -11142622#3 -11142622#2 -11142622#1 -11142622#0 -828830550#1 -828830550#0 -1147831887#0 -1147831886#2 -1147831886#0 -977109048#4 -977109048#3 -977109048#2 -977109048#1 -977109048#0 -1147831885 -1147831883 -1147831884 -1147831882 -1147831881#7 -1147831881#6 -1147831881#5 -1147831881#3 -1147831881#1 -1147831881#0 -1147831880 -1147831879#1 -1144608292#1 -1144608292#0 -1144608291 -1144608290 -1144608289 -419742966 -419742967 -419742965 -419742964 83067383#1"/>
    </vehicle>
    <vehicle id="normal28" type="Normal" depart="28.00">
        <route edges="534729142#2 -534729142#2 -534729142#1 -534729142#0 534729141#0 534729141#1 125552985#0 125552985#1 125552985#2 190867866#0 190867866#1 190867866#2 534491913#0 534491913#1 534491913#2 534491913#3 534491913#4 -931175010#18 -931175010#17 -931175010#16 -931175010#15 -931175010#14 -931175010#13 -931175010#12 -931175010#11 -931175010#10 -931175010#9 -931175010#8 -931175010#7 -931175010#5 -931175010#4 -931175010#3 -931175010#2 -931175010#1 -195485140#4 -195485140#3 -195485140#2"/>
    </vehicle>
    <vehicle id="normal29" type="Normal" depart="29.00">
        <route edges="11160457#2 11160457#3 11160457#4 -1124152026#0 1124152027 105107999#0 105107999#1 105107999#2 1124152029 424766016#0 424766016#1 424766016#2 424766016#3 424766016#4 424766016#5 424766016#6 764854942 -190532666 -190675516#5 -190675516#4 -190675516#3 -190675516#2 -190675516#0 -535281605 -535281793#1 -535281793#0 -535281613#2 -535281613#1 -535281613#0 -134544915#27 -134544915#26 -134544915#25 -134544915#24 -134544915#23 -134544915#22 -134544915#21 -134544915#20 -134544915#19 -134544915#18 -134544915#17 -134544915#16 -134544915#15 -134544915#14 -134544915#12 -134544915#11 -134544915#9 -134544915#8 -134544915#7 -134544915#6 -134544915#5 -134544915#4 -134544915#3 -134544915#2 -134544915#1 -134544915#0 -775565369 -775565368 -157462157 -743356232 -82541674 -398329011 -993098815 -287326472 82541669 -11148535 11167976 398329023 398329022#0 398329027 163069951#0 163069951#1 163069951#2 163069951#3 163069951#4 163069951#5 163069951#6 163069951#7 163069951#8 -83067399"/>
    </vehicle>
    <vehicle id="normal30" type="Normal" depart="30.00">
        <route edges="757253374#0 757253374#1 757253374#2 757253374#3 757253374#4 617152586#1 -617152586#1 -757253374#4 -757253374#3 -757253374#2 -757253374#1 -757253374#0 -757253373 -617152589 -617152588 -11148909#3 -11148909#1 83135927#1 105108001#0 105108001#1 105108001#2 105108001#3 105108001#4 105108001#5 1123338339 190525147#1 1007999947 860909989 860909994 860909992#0 860909992#1 860909988 860909987#0 860909987#1 977105634 860909990 -856193612#3 -856193612#2 -856193612#1 -190525148#3 -190525148#2 -190525148#1 -190525148#0 190532677#0 190532677#1 763289592 763289593#0 763289593#1 763289593#2 680631530#1 190532676#0 190532676#1 190532676#2 190532676#3 190532676#4 190545232#0 190545232#2 190545232#3 190545232#5 190545232#8 190545232#9 190545232#10 190545232#11 190545232#12 190545232#13 190545232#14 190545232#15 190545232#16 190545232#17 190545232#18 190545232#19 190545232#20 190545232#22 190545232#23 190545232#24 190545232#25 190545232#27 190545232#28 190545232#29 190545232#30 190545232#31 190545232#32 190545232#33 190545232#34 190545232#35 190545232#36 190545232#37 190545232#38 190545232#39 190545232#40 190545232#41 190545232#42 190545232#44 190545232#45 190545232#46 190545232#47 190545232#50 190545232#51 1144608293#0 1144608293#2 1144608294 1144608295#0 1144608295#1 1144608295#2 1144608297 1144608296#0 1144608298#0 1144608298#1 1144608299 1144608300#0 1144608300#1 1144608301 104946910#0 104946910#1 104946910#2 104946910#3 104946910#4 104946910#5 104946910#6 104946910#7 104946910#8 104946910#9 104946910#10 104946910#11 104946911#3 1055333437#2"/>
    </vehicle>
    <vehicle id="normal31" type="Normal" depart="31.00">
        <route edges="-167158233#0 167158233#0 167158233#1 105107999#1 105107999#2 1124152029 905302126#7 905302126#8 905302126#9 905302126#10 905302126#11 535280685 534630429 424065780#0 424065780#2 535280334 424065171#0 424065171#1 829316438 829316436 810360131 680631527#1 680631530#1 190532676#0 190532676#1 190532676#2 190532676#3 190532676#4 190545232#0 190545232#2 190545232#3 190545232#5 190545232#8 190545232#9 190545232#10 190545232#11 190545232#12 190545232#13 190545232#14 190545232#15 190545232#16 190545232#17 190545232#18 190545232#19 190545232#20 190545232#22 190545232#23 190545232#24 190545232#25 190545232#27 190545232#28 190545232#29 190545232#30 190545232#31 190545232#32 190545232#33 190545232#34 190545232#35 190545232#36 190545232#37 190545232#38 190545232#39 190545232#40 190545232#41 190545232#42 190545232#44 190545232#45 190545232#46 190545232#47 190545232#50 190545232#51 1147831879#0 1147831880 1147831881#0 1147831881#1 1147831881#3 1147831881#5 1147831881#6 1147831881#7 1147831882 1147831884 -1147831884"/>
    </vehicle>
    <vehicle id="normal32" type="Normal" depart="32.00">